<?xml version="1.0" encoding="UTF-8"?>

<!-- generated on 05/31/17 15:33:58 by SUMO netconvert Version dev-SVN-r24423
<?xml version="1.0" encoding="UTF-8"?>

<configuration xmlns:xsi="http://www.w3.org/2001/XMLSchema-instance" xsi:noNamespaceSchemaLocation="http://sumo.dlr.de/xsd/netconvertConfiguration.xsd">

    <input>
        <node-files value="data/input_nodes.nod.xml"/>
        <edge-files value="data/input_edges.edg.xml"/>
        <connection-files value="data/input_connections.con.xml"/>
    </input>

    <output>
        <output-file value="data/acosta_buslanes.net.xml"/>
    </output>

    <processing>
        <roundabouts.guess value="true"/>
        <check-lane-foes.all value="true"/>
    </processing>

    <report>
        <verbose value="true"/>
    </report>

</configuration>
-->

<net version="0.27" xmlns:xsi="http://www.w3.org/2001/XMLSchema-instance" xsi:noNamespaceSchemaLocation="http://sumo.dlr.de/xsd/net_file.xsd">

    <location netOffset="-683542.41,-4928877.56" convBoundary="0.00,0.00,1817.58,1350.19" origBoundary="-346.830000,0.000000,1817.580000,2148.550000" projParameter="+proj=utm +zone=32 +ellps=WGS84 +datum=WGS84 +units=m +no_defs"/>

    <edge id=":0_0" function="internal">
        <lane id=":0_0_0" index="0" speed="13.89" length="8.54" shape="1407.42,812.95 1409.72,812.87 1411.30,812.63 1412.80,812.08 1414.85,811.05"/>
        <lane id=":0_0_1" index="1" speed="13.89" length="8.54" shape="1407.50,816.25 1410.19,815.78 1412.00,814.93 1413.79,814.26 1416.43,814.33"/>
    </edge>
    <edge id=":0_2" function="internal">
        <lane id=":0_2_0" index="0" speed="13.89" length="9.09" shape="1407.50,816.25 1410.33,816.29 1412.25,816.59 1414.13,817.16 1416.85,818.01"/>
        <lane id=":0_2_1" index="1" speed="13.89" length="9.09" shape="1407.58,819.55 1410.11,819.60 1411.82,819.88 1413.51,820.41 1415.94,821.18"/>
    </edge>
    <edge id=":1_0" function="internal">
        <lane id=":1_0_0" index="0" speed="13.89" length="9.53" shape="1503.45,842.65 1501.54,851.90"/>
        <lane id=":1_0_1" index="1" speed="13.89" length="9.53" shape="1500.25,841.82 1498.32,851.15"/>
        <lane id=":1_0_2" index="2" speed="13.89" length="9.53" shape="1497.06,840.99 1495.11,850.40"/>
    </edge>
    <edge id=":1_3" function="internal">
        <lane id=":1_3_0" index="0" speed="13.89" length="10.98" shape="1493.13,842.93 1497.24,845.01 1500.01,847.20 1501.44,849.50 1501.54,851.90"/>
        <lane id=":1_3_1" index="1" speed="13.89" length="10.98" shape="1491.84,845.97 1494.87,847.41 1496.96,848.75 1498.11,850.00 1498.32,851.15"/>
    </edge>
    <edge id=":10_0" function="internal">
        <lane id=":10_0_0" index="0" speed="13.89" length="3.97" shape="611.16,930.85 606.95,929.37"/>
        <lane id=":10_0_1" index="1" speed="13.89" length="3.97" shape="611.16,930.85 610.00,928.10"/>
        <lane id=":10_0_2" index="2" speed="13.89" length="3.97" shape="611.16,930.85 613.04,926.83"/>
    </edge>
    <edge id=":11_0" function="internal">
        <lane id=":11_0_0" index="0" speed="13.89" length="17.37" shape="300.50,164.13 302.08,167.36 303.96,170.55 306.13,174.37 308.52,179.49"/>
        <lane id=":11_0_1" index="1" speed="13.89" length="17.37" shape="300.50,164.13 301.60,167.56 302.44,171.18 303.55,175.44 305.48,180.77"/>
    </edge>
    <edge id=":114-end_0" function="internal">
        <lane id=":114-end_0_0" index="0" allow="bus" speed="13.89" length="4.82" shape="781.38,1351.71 779.92,1351.43 779.23,1350.82 779.29,1349.90 780.12,1348.67"/>
    </edge>
    <edge id=":12_0" function="internal">
        <lane id=":12_0_0" index="0" speed="13.89" length="13.83" shape="321.91,236.17 320.28,233.70 317.77,231.95 314.38,230.90 310.13,230.57"/>
    </edge>
    <edge id=":12_1" function="internal">
        <lane id=":12_1_0" index="0" speed="13.89" length="19.77" shape="321.91,236.17 319.71,230.02 318.49,225.00 317.62,220.82 316.50,217.19"/>
    </edge>
    <edge id=":12_2" function="internal">
        <lane id=":12_2_0" index="0" speed="13.89" length="5.95" shape="324.95,234.87 323.84,230.88 324.26,229.13"/>
    </edge>
    <edge id=":12_9" function="internal">
        <lane id=":12_9_0" index="0" speed="13.89" length="7.82" shape="324.26,229.13 324.48,228.22 326.87,226.90 331.02,226.92"/>
    </edge>
    <edge id=":12_3" function="internal">
        <lane id=":12_3_0" index="0" speed="13.89" length="5.87" shape="330.57,230.19 328.81,230.18 327.78,230.74 327.51,231.87 327.99,233.58"/>
    </edge>
    <edge id=":12_4" function="internal">
        <lane id=":12_4_0" index="0" speed="13.89" length="20.46" shape="330.57,230.19 325.99,229.96 320.37,230.12 314.74,230.41 310.13,230.57"/>
    </edge>
    <edge id=":12_5" function="internal">
        <lane id=":12_5_0" index="0" speed="13.89" length="20.05" shape="330.57,230.19 326.28,228.91 322.50,226.31 319.24,222.41 316.50,217.19"/>
    </edge>
    <edge id=":12_6" function="internal">
        <lane id=":12_6_0" index="0" speed="13.89" length="15.10" shape="323.09,214.41 325.48,219.73 327.60,223.59 329.45,225.99 331.02,226.92"/>
    </edge>
    <edge id=":12_7" function="internal">
        <lane id=":12_7_0" index="0" speed="13.89" length="19.57" shape="320.05,215.69 327.99,233.58"/>
    </edge>
    <edge id=":12_8" function="internal">
        <lane id=":12_8_0" index="0" speed="13.89" length="11.47" shape="320.05,215.69 321.74,222.17 320.66,226.81"/>
    </edge>
    <edge id=":12_10" function="internal">
        <lane id=":12_10_0" index="0" speed="13.89" length="11.50" shape="320.66,226.81 316.79,229.61 310.13,230.57"/>
    </edge>
    <edge id=":13_0" function="internal">
        <lane id=":13_0_0" index="0" speed="13.89" length="5.55" shape="435.23,244.54 433.61,244.56 432.59,245.10 432.17,246.18 432.36,247.79"/>
    </edge>
    <edge id=":13_1" function="internal">
        <lane id=":13_1_0" index="0" speed="13.89" length="9.31" shape="435.23,244.54 426.00,243.31"/>
    </edge>
    <edge id=":13_2" function="internal">
        <lane id=":13_2_0" index="0" speed="13.89" length="4.11" shape="435.23,244.54 433.44,243.87 431.85,242.35"/>
    </edge>
    <edge id=":13_4" function="internal">
        <lane id=":13_4_0" index="0" speed="13.89" length="6.20" shape="431.85,242.35 430.45,239.98 429.24,236.75"/>
    </edge>
    <edge id=":13_3" function="internal">
        <lane id=":13_3_0" index="0" speed="13.89" length="9.29" shape="426.45,240.04 435.65,241.27"/>
    </edge>
    <edge id=":133-begin_0" function="internal">
        <lane id=":133-begin_0_0" index="0" speed="13.89" length="4.82" shape="1759.03,528.72 1760.43,529.21 1761.04,529.91 1760.84,530.81 1759.85,531.92"/>
    </edge>
    <edge id=":135-begin_0" function="internal">
        <lane id=":135-begin_0_0" index="0" speed="13.89" length="4.82" shape="929.40,1098.11 929.12,1099.57 928.52,1100.27 927.60,1100.21 926.36,1099.39"/>
    </edge>
    <edge id=":137-begin_0" function="internal">
        <lane id=":137-begin_0_0" index="0" speed="13.89" length="4.82" shape="457.44,1074.97 455.98,1074.67 455.28,1074.07 455.35,1073.15 456.18,1071.91"/>
    </edge>
    <edge id=":15_0" function="internal">
        <lane id=":15_0_0" index="0" speed="13.89" length="15.96" shape="806.30,820.48 804.47,818.02 801.68,816.84 797.94,816.95 793.24,818.35"/>
        <lane id=":15_0_1" index="1" speed="13.89" length="15.96" shape="806.30,820.48 803.90,816.69 800.72,814.56 796.76,814.09 792.02,815.29"/>
    </edge>
    <edge id=":15_2" function="internal">
        <lane id=":15_2_0" index="0" speed="13.89" length="13.38" shape="809.32,819.16 806.86,812.95 805.63,808.46 805.62,806.42"/>
    </edge>
    <edge id=":15_7" function="internal">
        <lane id=":15_7_0" index="0" speed="13.89" length="2.34" shape="805.62,806.42 805.62,805.69 806.85,804.65"/>
    </edge>
    <edge id=":15_3" function="internal">
        <lane id=":15_3_0" index="0" speed="13.89" length="5.78" shape="802.70,797.99 803.11,799.59 803.89,800.69 805.03,801.28 806.53,801.37"/>
    </edge>
    <edge id=":15_4" function="internal">
        <lane id=":15_4_0" index="0" speed="13.89" length="22.11" shape="802.70,797.99 802.62,803.75 800.81,808.55 797.28,812.39 792.02,815.29"/>
    </edge>
    <edge id=":15_5" function="internal">
        <lane id=":15_5_0" index="0" speed="13.89" length="18.35" shape="788.57,806.53 793.72,804.38 797.31,802.98 801.02,802.07 806.53,801.37"/>
        <lane id=":15_5_1" index="1" speed="13.89" length="18.35" shape="789.78,809.60 794.68,807.55 798.09,806.20 801.61,805.32 806.85,804.65"/>
    </edge>
    <edge id=":16_0" function="internal">
        <lane id=":16_0_0" index="0" speed="13.89" length="6.77" shape="664.68,854.89 662.82,855.66 661.86,857.02 660.90,858.34 659.04,859.04"/>
        <lane id=":16_0_1" index="1" speed="13.89" length="6.77" shape="664.32,851.61 662.50,852.38 661.57,853.73 660.64,855.05 658.81,855.75"/>
        <lane id=":16_0_2" index="2" speed="13.89" length="6.77" shape="664.32,851.61 658.58,852.46"/>
    </edge>
    <edge id=":17_0" function="internal">
        <lane id=":17_0_0" index="0" speed="13.89" length="3.49" shape="818.30,847.61 816.74,844.48"/>
        <lane id=":17_0_1" index="1" speed="13.89" length="3.49" shape="821.32,846.27 819.76,843.16"/>
    </edge>
    <edge id=":18_0" function="internal">
        <lane id=":18_0_0" index="0" speed="13.89" length="13.68" shape="469.94,388.44 467.88,384.24 465.77,381.17 463.60,379.23 461.37,378.43"/>
    </edge>
    <edge id=":18_1" function="internal">
        <lane id=":18_1_0" index="0" speed="13.89" length="14.75" shape="469.94,388.44 467.89,382.79 467.28,378.84 468.12,376.59 470.39,376.04"/>
    </edge>
    <edge id=":18_2" function="internal">
        <lane id=":18_2_0" index="0" speed="13.89" length="8.74" shape="470.06,379.32 461.37,378.43"/>
    </edge>
    <edge id=":18_3" function="internal">
        <lane id=":18_3_0" index="0" speed="13.89" length="7.69" shape="464.54,371.86 465.27,373.50 466.48,374.75 468.19,375.59 470.39,376.04"/>
    </edge>
    <edge id=":18_4" function="internal">
        <lane id=":18_4_0" index="0" speed="13.89" length="9.04" shape="464.54,371.86 465.03,374.93 464.67,377.05 463.45,378.22 461.37,378.43"/>
    </edge>
    <edge id=":18_5" function="internal">
        <lane id=":18_5_0" index="0" speed="13.89" length="8.72" shape="461.71,375.15 470.39,376.04"/>
    </edge>
    <edge id=":19_0" function="internal">
        <lane id=":19_0_0" index="0" speed="13.89" length="10.34" shape="380.83,376.81 379.80,374.11 379.34,372.17 378.90,370.22 377.92,367.49"/>
        <lane id=":19_0_1" index="1" speed="13.89" length="10.34" shape="380.83,376.81 380.27,373.92 380.90,371.63 381.52,369.28 380.95,366.20"/>
    </edge>
    <edge id=":19_2" function="internal">
        <lane id=":19_2_0" index="0" speed="13.89" length="10.98" shape="380.83,376.81 379.56,372.27 380.53,369.21 383.28,367.88"/>
    </edge>
    <edge id=":19_7" function="internal">
        <lane id=":19_7_0" index="0" speed="13.89" length="5.97" shape="383.28,367.88 383.74,367.65 389.19,367.59"/>
    </edge>
    <edge id=":19_3" function="internal">
        <lane id=":19_3_0" index="0" speed="13.89" length="5.83" shape="388.85,370.87 387.10,370.92 386.10,371.52 385.85,372.65 386.35,374.33"/>
    </edge>
    <edge id=":19_4" function="internal">
        <lane id=":19_4_0" index="0" speed="13.89" length="11.71" shape="388.85,370.87 384.44,370.27 381.15,369.51 378.98,368.58 377.92,367.49"/>
    </edge>
    <edge id=":19_5" function="internal">
        <lane id=":19_5_0" index="0" speed="13.89" length="6.12" shape="383.99,364.90 384.67,365.91 385.77,366.70 387.27,367.26 389.19,367.59"/>
    </edge>
    <edge id=":19_6" function="internal">
        <lane id=":19_6_0" index="0" speed="13.89" length="9.77" shape="383.99,364.90 384.88,367.64 385.14,369.63 385.41,371.62 386.35,374.33"/>
    </edge>
    <edge id=":1b_0" function="internal">
        <lane id=":1b_0_0" index="0" speed="13.89" length="13.66" shape="1479.50,836.03 1483.32,837.44 1485.74,838.89 1488.10,840.49 1491.77,842.35"/>
        <lane id=":1b_0_1" index="1" speed="13.89" length="13.66" shape="1478.59,839.20 1482.29,840.58 1484.63,842.01 1486.92,843.58 1490.48,845.39"/>
    </edge>
    <edge id=":1b_2" function="internal">
        <lane id=":1b_2_0" index="0" speed="13.89" length="12.61" shape="1480.09,846.15 1483.54,833.92"/>
        <lane id=":1b_2_1" index="1" speed="13.89" length="12.61" shape="1483.31,846.88 1486.73,834.74"/>
        <lane id=":1b_2_2" index="2" speed="13.89" length="12.61" shape="1486.53,847.61 1489.93,835.57"/>
    </edge>
    <edge id=":1c_0" function="internal">
        <lane id=":1c_0_0" index="0" speed="13.89" length="5.09" shape="1508.52,822.79 1508.39,824.20 1508.76,825.27 1509.61,826.02 1510.96,826.43"/>
    </edge>
    <edge id=":1c_1" function="internal">
        <lane id=":1c_1_0" index="0" speed="13.89" length="7.99" shape="1508.52,822.79 1506.57,830.62"/>
        <lane id=":1c_1_1" index="1" speed="13.89" length="7.99" shape="1505.30,822.04 1503.37,829.79"/>
        <lane id=":1c_1_2" index="2" speed="13.89" length="7.99" shape="1502.09,821.28 1500.18,828.96"/>
    </edge>
    <edge id=":1c_4" function="internal">
        <lane id=":1c_4_0" index="0" speed="13.89" length="13.53" shape="1497.48,825.54 1501.00,825.53 1504.24,825.66 1507.47,825.95 1510.96,826.43"/>
    </edge>
    <edge id=":2_0" function="internal">
        <lane id=":2_0_0" index="0" speed="13.89" length="8.17" shape="1433.62,814.26 1436.00,814.44 1437.66,814.15 1439.32,813.85 1441.70,814.00"/>
        <lane id=":2_0_1" index="1" speed="13.89" length="8.17" shape="1433.00,817.50 1435.39,817.68 1437.06,817.40 1438.73,817.10 1441.13,817.25"/>
        <lane id=":2_0_2" index="2" speed="13.89" length="8.17" shape="1433.00,817.50 1435.30,818.19 1436.77,819.02 1438.25,819.84 1440.56,820.50"/>
    </edge>
    <edge id=":204c_0" function="internal">
        <lane id=":204c_0_0" index="0" speed="13.89" length="13.46" shape="1459.59,1039.79 1460.72,1043.37 1461.92,1045.67 1463.40,1047.86 1465.39,1051.10"/>
        <lane id=":204c_0_1" index="1" speed="13.89" length="13.46" shape="1459.59,1039.79 1460.28,1043.70 1460.45,1046.48 1460.92,1049.15 1462.51,1052.71"/>
        <lane id=":204c_0_2" index="2" speed="13.89" length="13.46" shape="1456.39,1040.59 1457.14,1044.75 1457.37,1047.71 1457.92,1050.53 1459.63,1054.31"/>
    </edge>
    <edge id=":204c_3" function="internal">
        <lane id=":204c_3_0" index="0" speed="13.89" length="12.31" shape="1456.39,1040.59 1457.19,1044.86 1457.28,1048.51 1456.65,1051.53 1455.31,1053.94"/>
        <lane id=":204c_3_1" index="1" speed="13.89" length="12.31" shape="1453.19,1041.40 1453.88,1044.89 1454.04,1047.80 1453.66,1050.12 1452.75,1051.87"/>
    </edge>
    <edge id=":20a_0" function="internal">
        <lane id=":20a_0_0" index="0" speed="13.89" length="5.41" shape="436.00,540.37 435.78,538.86 435.27,537.63 434.46,536.67 433.35,535.99"/>
    </edge>
    <edge id=":20a_1" function="internal">
        <lane id=":20a_1_0" index="0" speed="13.89" length="5.08" shape="436.00,540.37 435.97,538.59 436.14,537.36 436.62,536.21 437.51,534.66"/>
        <lane id=":20a_1_1" index="1" speed="13.89" length="5.08" shape="439.30,540.22 439.28,539.01 439.40,538.18 439.73,537.40 440.34,536.35"/>
    </edge>
    <edge id=":20b_0" function="internal">
        <lane id=":20b_0_0" index="0" speed="13.89" length="7.91" shape="438.30,525.65 440.31,526.29 442.02,526.59 443.44,526.54 444.56,526.15"/>
        <lane id=":20b_0_1" index="1" speed="13.89" length="7.91" shape="437.13,528.74 439.87,529.57 442.29,529.90 444.41,529.71 446.22,529.00"/>
    </edge>
    <edge id=":20b_2" function="internal">
        <lane id=":20b_2_0" index="0" speed="13.89" length="8.35" shape="438.58,532.88 439.94,530.51 440.98,528.91 442.31,527.61 444.56,526.15"/>
        <lane id=":20b_2_1" index="1" speed="13.89" length="8.35" shape="441.41,534.57 442.51,532.63 443.33,531.30 444.39,530.21 446.22,529.00"/>
    </edge>
    <edge id=":20c_0" function="internal">
        <lane id=":20c_0_0" index="0" speed="13.89" length="8.11" shape="447.86,524.24 448.83,523.19 449.02,521.63 448.43,519.54 447.06,516.94"/>
    </edge>
    <edge id=":20c_1" function="internal">
        <lane id=":20c_1_0" index="0" speed="13.89" length="4.34" shape="447.86,524.24 449.05,523.55 449.89,523.12 450.75,522.75 452.04,522.27"/>
        <lane id=":20c_1_1" index="1" speed="13.89" length="4.34" shape="449.51,527.10 450.55,526.50 451.28,526.11 452.03,525.79 453.16,525.38"/>
    </edge>
    <edge id=":21_0" function="internal">
        <lane id=":21_0_0" index="0" speed="13.89" length="3.42" shape="419.90,448.99 420.51,449.72 421.24,449.95 421.99,450.18 422.63,450.89"/>
        <lane id=":21_0_1" index="1" speed="13.89" length="3.42" shape="419.90,448.99 419.67,452.36"/>
    </edge>
    <edge id=":21m_0" function="internal">
        <lane id=":21m_0_0" index="0" speed="13.89" length="6.26" shape="436.51,499.77 435.53,498.19 434.88,497.10 434.30,495.97 433.55,494.27"/>
    </edge>
    <edge id=":21m_1" function="internal">
        <lane id=":21m_1_0" index="0" speed="13.89" length="5.72" shape="432.18,499.56 433.14,498.08 433.68,496.71 433.82,495.44 433.55,494.27"/>
    </edge>
    <edge id=":23_0" function="internal">
        <lane id=":23_0_0" index="0" speed="13.89" length="26.40" shape="530.07,735.98 526.63,729.03 522.52,723.69 517.75,719.94 512.32,717.80"/>
    </edge>
    <edge id=":23_1" function="internal">
        <lane id=":23_1_0" index="0" speed="13.89" length="32.69" shape="533.12,734.73 519.38,705.07"/>
    </edge>
    <edge id=":23_2" function="internal">
        <lane id=":23_2_0" index="0" speed="13.89" length="22.59" shape="524.09,703.08 527.36,709.69 530.82,714.67 534.47,718.02 538.30,719.74"/>
    </edge>
    <edge id=":23_3" function="internal">
        <lane id=":23_3_0" index="0" speed="13.89" length="32.86" shape="524.09,703.08 539.34,732.20"/>
    </edge>
    <edge id=":23_4" function="internal">
        <lane id=":23_4_0" index="0" speed="13.89" length="12.18" shape="524.09,703.08 526.47,711.27 525.67,714.84"/>
    </edge>
    <edge id=":23_8" function="internal">
        <lane id=":23_8_0" index="0" speed="13.89" length="15.17" shape="525.67,714.84 525.30,716.46 520.59,718.63 512.32,717.80"/>
    </edge>
    <edge id=":23_5" function="internal">
        <lane id=":23_5_0" index="0" speed="13.89" length="16.43" shape="513.06,714.58 517.75,714.99 520.37,713.54 520.91,710.23 519.38,705.07"/>
    </edge>
    <edge id=":23_6" function="internal">
        <lane id=":23_6_0" index="0" speed="13.89" length="25.76" shape="513.06,714.58 538.30,719.74"/>
    </edge>
    <edge id=":23_7" function="internal">
        <lane id=":23_7_0" index="0" speed="13.89" length="31.12" shape="513.06,714.58 520.94,717.26 527.44,721.29 532.55,726.69 536.28,733.44"/>
    </edge>
    <edge id=":24_0" function="internal">
        <lane id=":24_0_0" index="0" speed="13.89" length="9.47" shape="689.56,56.93 686.56,47.94"/>
    </edge>
    <edge id=":24_1" function="internal">
        <lane id=":24_1_0" index="0" speed="13.89" length="14.16" shape="689.56,56.93 689.55,55.01 691.42,54.72 695.17,56.05 700.81,59.00"/>
    </edge>
    <edge id=":25_0" function="internal">
        <lane id=":25_0_0" index="0" speed="13.89" length="5.06" shape="641.48,91.95 642.77,91.43 643.56,90.62 643.86,89.52 643.65,88.14"/>
    </edge>
    <edge id=":25_1" function="internal">
        <lane id=":25_1_0" index="0" speed="13.89" length="5.07" shape="641.48,91.95 642.89,91.79 644.04,92.07 644.93,92.79 645.56,93.96"/>
    </edge>
    <edge id=":25-begin_0" function="internal">
        <lane id=":25-begin_0_0" index="0" speed="13.89" length="4.82" shape="179.55,670.26 178.43,669.28 178.13,668.40 178.65,667.64 179.99,666.99"/>
    </edge>
    <edge id=":26_0" function="internal">
        <lane id=":26_0_0" index="0" speed="13.89" length="14.20" shape="1605.25,571.91 1602.41,573.69 1600.33,576.48 1597.79,579.33 1593.56,581.27"/>
        <lane id=":26_0_1" index="1" allow="bus" speed="13.89" length="14.20" shape="1605.25,571.91 1602.22,573.20 1599.78,574.91 1596.97,576.65 1592.87,578.04"/>
        <lane id=":26_0_2" index="2" speed="13.89" length="14.20" shape="1605.25,571.91 1592.18,574.81"/>
    </edge>
    <edge id=":26_3" function="internal">
        <lane id=":26_3_0" index="0" speed="13.89" length="13.24" shape="1591.50,571.61 1604.42,568.72"/>
    </edge>
    <edge id=":26_4" function="internal">
        <lane id=":26_4_0" index="0" speed="13.89" length="5.63" shape="1596.59,584.33 1596.73,582.68 1596.27,581.62 1595.21,581.15 1593.56,581.27"/>
    </edge>
    <edge id=":26_5" function="internal">
        <lane id=":26_5_0" index="0" speed="13.89" length="18.02" shape="1596.59,584.33 1598.30,577.95 1600.17,573.22 1602.21,570.14 1604.42,568.72"/>
    </edge>
    <edge id=":26_6" function="internal">
        <lane id=":26_6_0" index="0" speed="13.89" length="5.15" shape="1596.59,584.33 1597.74,583.24 1598.70,583.00 1599.46,583.62 1600.03,585.11"/>
    </edge>
    <edge id=":27_0" function="internal">
        <lane id=":27_0_0" index="0" speed="13.89" length="16.87" shape="1577.91,584.60 1574.27,585.98 1571.28,588.43 1568.94,591.95 1567.25,596.54"/>
    </edge>
    <edge id=":27_1" function="internal">
        <lane id=":27_1_0" index="0" allow="bus" speed="13.89" length="33.08" shape="1577.26,581.37 1566.73,581.65 1557.52,579.28 1550.13,576.49 1545.09,575.47"/>
    </edge>
    <edge id=":27_2" function="internal">
        <lane id=":27_2_0" index="0" speed="13.89" length="23.18" shape="1576.60,578.13 1566.65,579.09 1560.23,576.96 1557.36,571.75 1557.40,571.28"/>
    </edge>
    <edge id=":27_14" function="internal">
        <lane id=":27_14_0" index="0" speed="13.89" length="7.86" shape="1557.40,571.28 1558.02,563.45"/>
    </edge>
    <edge id=":27_3" function="internal">
        <lane id=":27_3_0" index="0" speed="13.89" length="9.12" shape="1573.94,567.38 1573.34,570.90 1573.46,573.30 1574.33,574.58 1575.92,574.75"/>
    </edge>
    <edge id=":27_4" function="internal">
        <lane id=":27_4_0" index="0" speed="13.89" length="29.86" shape="1573.94,567.38 1567.25,596.54"/>
        <lane id=":27_4_1" index="1" speed="13.89" length="29.86" shape="1570.74,566.59 1564.06,595.69"/>
        <lane id=":27_4_2" index="2" speed="13.89" length="29.86" shape="1567.53,565.80 1560.87,594.84"/>
    </edge>
    <edge id=":27_7" function="internal">
        <lane id=":27_7_0" index="0" allow="bus" speed="13.89" length="25.26" shape="1567.53,565.80 1565.58,568.71 1561.19,571.29 1554.36,573.55 1545.09,575.47"/>
    </edge>
    <edge id=":27_8" function="internal">
        <lane id=":27_8_0" index="0" speed="13.89" length="9.33" shape="1543.43,565.58 1546.78,564.88 1549.26,564.03 1550.88,563.02 1551.62,561.86"/>
    </edge>
    <edge id=":27_9" function="internal">
        <lane id=":27_9_0" index="0" speed="13.89" length="32.79" shape="1543.97,568.83 1554.52,568.88 1563.66,571.26 1570.94,573.90 1575.92,574.75"/>
    </edge>
    <edge id=":27_10" function="internal">
        <lane id=":27_10_0" index="0" speed="13.89" length="26.55" shape="1544.52,572.09 1557.40,571.75 1565.49,575.71 1567.21,580.04"/>
    </edge>
    <edge id=":27_15" function="internal">
        <lane id=":27_15_0" index="0" speed="13.89" length="16.89" shape="1567.21,580.04 1568.77,583.97 1567.25,596.54"/>
    </edge>
    <edge id=":27_11" function="internal">
        <lane id=":27_11_0" index="0" speed="13.89" length="29.53" shape="1544.92,590.59 1551.62,561.86"/>
        <lane id=":27_11_1" index="1" speed="13.89" length="29.53" shape="1548.11,591.44 1554.82,562.65"/>
    </edge>
    <edge id=":27_13" function="internal">
        <lane id=":27_13_0" index="0" speed="13.89" length="31.84" shape="1551.29,592.29 1554.12,586.22 1559.17,581.27 1566.43,577.45 1575.92,574.75"/>
    </edge>
    <edge id=":28_0" function="internal">
        <lane id=":28_0_0" index="0" speed="13.89" length="6.43" shape="701.40,239.84 695.27,241.75"/>
    </edge>
    <edge id=":28_1" function="internal">
        <lane id=":28_1_0" index="0" speed="13.89" length="5.09" shape="696.35,234.68 697.01,235.94 697.89,236.70 699.01,236.96 700.35,236.71"/>
    </edge>
    <edge id=":28_2" function="internal">
        <lane id=":28_2_0" index="0" speed="13.89" length="8.04" shape="696.35,234.68 697.11,237.42 697.19,239.51 696.57,240.96 695.27,241.75"/>
    </edge>
    <edge id=":28_3" function="internal">
        <lane id=":28_3_0" index="0" speed="13.89" length="6.28" shape="694.36,238.58 700.35,236.71"/>
    </edge>
    <edge id=":29_0" function="internal">
        <lane id=":29_0_0" index="0" speed="13.89" length="8.29" shape="1528.34,654.94 1530.37,646.86"/>
        <lane id=":29_0_1" index="1" speed="13.89" length="8.29" shape="1531.54,655.73 1533.56,647.69"/>
        <lane id=":29_0_2" index="2" speed="13.89" length="8.29" shape="1534.75,656.52 1536.75,648.52"/>
    </edge>
    <edge id=":3_0" function="internal">
        <lane id=":3_0_0" index="0" speed="13.89" length="10.60" shape="1482.94,821.26 1484.57,821.35 1485.82,821.00 1486.71,820.20 1487.23,818.95"/>
        <lane id=":3_0_1" index="1" speed="13.89" length="10.60" shape="1482.37,824.51 1485.39,824.65 1487.74,823.89 1489.42,822.24 1490.44,819.69"/>
        <lane id=":3_0_2" index="2" speed="13.89" length="10.60" shape="1481.80,827.76 1486.21,827.95 1489.66,826.79 1492.14,824.28 1493.66,820.42"/>
    </edge>
    <edge id=":3_3" function="internal">
        <lane id=":3_3_0" index="0" speed="13.89" length="14.53" shape="1481.80,827.76 1486.31,827.96 1489.69,827.16 1492.68,826.12 1496.01,825.56"/>
    </edge>
    <edge id=":3_4" function="internal">
        <lane id=":3_4_0" index="0" speed="13.89" length="12.96" shape="1484.17,831.45 1487.23,818.95"/>
        <lane id=":3_4_1" index="1" speed="13.89" length="12.96" shape="1487.37,832.27 1490.44,819.69"/>
        <lane id=":3_4_2" index="2" speed="13.89" length="12.96" shape="1490.56,833.10 1493.66,820.42"/>
    </edge>
    <edge id=":30_0" function="internal">
        <lane id=":30_0_0" index="0" speed="13.89" length="8.24" shape="575.37,261.22 572.93,261.38 571.27,261.70 569.60,261.92 567.18,261.79"/>
    </edge>
    <edge id=":30_1" function="internal">
        <lane id=":30_1_0" index="0" speed="13.89" length="6.14" shape="570.82,254.87 571.15,256.20 572.02,257.15 573.43,257.72 575.39,257.92"/>
    </edge>
    <edge id=":30_2" function="internal">
        <lane id=":30_2_0" index="0" speed="13.89" length="6.30" shape="570.82,254.87 570.70,258.09 570.05,260.32 569.53,260.87"/>
    </edge>
    <edge id=":30_6" function="internal">
        <lane id=":30_6_0" index="0" speed="13.89" length="2.66" shape="569.53,260.87 568.88,261.55 567.18,261.79"/>
    </edge>
    <edge id=":30_3" function="internal">
        <lane id=":30_3_0" index="0" speed="13.89" length="7.83" shape="567.61,258.52 569.91,258.64 571.49,258.40 573.07,258.08 575.39,257.92"/>
    </edge>
    <edge id=":30_4" function="internal">
        <lane id=":30_4_0" index="0" speed="13.89" length="5.14" shape="570.26,265.19 570.13,263.86 569.57,262.85 568.59,262.16 567.18,261.79"/>
    </edge>
    <edge id=":30_5" function="internal">
        <lane id=":30_5_0" index="0" speed="13.89" length="6.71" shape="570.26,265.19 570.72,262.00 571.73,259.73 572.49,259.07"/>
    </edge>
    <edge id=":30_7" function="internal">
        <lane id=":30_7_0" index="0" speed="13.89" length="3.21" shape="572.49,259.07 573.29,258.37 575.39,257.92"/>
    </edge>
    <edge id=":31_0" function="internal">
        <lane id=":31_0_0" index="0" speed="13.89" length="11.03" shape="750.95,223.16 749.84,224.15 749.46,226.21 749.81,229.32 750.88,233.50"/>
    </edge>
    <edge id=":31_1" function="internal">
        <lane id=":31_1_0" index="0" speed="13.89" length="6.39" shape="750.95,223.16 744.87,225.14"/>
    </edge>
    <edge id=":31_2" function="internal">
        <lane id=":31_2_0" index="0" speed="13.89" length="5.01" shape="743.82,222.01 745.04,221.39 745.77,220.53 746.01,219.42 745.74,218.07"/>
    </edge>
    <edge id=":31_3" function="internal">
        <lane id=":31_3_0" index="0" speed="13.89" length="6.47" shape="743.82,222.01 749.97,220.01"/>
    </edge>
    <edge id=":31_4" function="internal">
        <lane id=":31_4_0" index="0" speed="13.89" length="2.65" shape="743.82,222.01 745.47,222.32 746.10,223.06"/>
    </edge>
    <edge id=":31_5" function="internal">
        <lane id=":31_5_0" index="0" speed="13.89" length="11.58" shape="746.10,223.06 747.19,224.34 749.00,228.06 750.88,233.50"/>
    </edge>
    <edge id=":32_0" function="internal">
        <lane id=":32_0_0" index="0" speed="13.89" length="5.00" shape="795.18,212.58 794.57,211.35 793.72,210.60 792.62,210.34 791.27,210.55"/>
    </edge>
    <edge id=":32_1" function="internal">
        <lane id=":32_1_0" index="0" speed="13.89" length="8.14" shape="795.18,212.58 794.51,209.85 794.51,207.75 795.18,206.26 796.52,205.40"/>
    </edge>
    <edge id=":32_2" function="internal">
        <lane id=":32_2_0" index="0" speed="13.89" length="6.60" shape="797.56,208.53 791.27,210.55"/>
    </edge>
    <edge id=":32_3" function="internal">
        <lane id=":32_3_0" index="0" speed="13.89" length="13.38" shape="790.00,194.50 791.73,199.64 793.40,203.17 795.00,205.09 796.52,205.40"/>
    </edge>
    <edge id=":32_4" function="internal">