<?xml version="1.0" encoding="UTF-8"?>

<!-- generated on 02/13/19 14:14:21 by Eclipse SUMO polyconvert Version v1_1_0+0666-d03de0290d
<configuration xmlns:xsi="http://www.w3.org/2001/XMLSchema-instance" xsi:noNamespaceSchemaLocation="http://sumo.dlr.de/xsd/polyconvertConfiguration.xsd">

    <input>
        <net-file value="osm.net.xml"/>
        <osm-files value="osm_bbox.osm.xml"/>
        <osm.keep-full-type value="true"/>
        <type-file value="D:\Wang\sumo_git\data\typemap\osmPolyconvert.typ.xml"/>
    </input>

    <output>
        <output-file value="osm.poly.xml"/>
    </output>

    <processing>
        <poi-layer-offset value="5"/>
    </processing>

    <report>
        <verbose value="true"/>
    </report>

</configuration>
-->

<additional xmlns:xsi="http://www.w3.org/2001/XMLSchema-instance" xsi:noNamespaceSchemaLocation="http://sumo.dlr.de/xsd/additional_file.xsd">
    <location netOffset="-598202.67,-5751589.25" convBoundary="-4750.97,-844.99,10132.00,10841.59" origBoundary="4.361435,51.879155,4.574759,52.004649" projParameter="+proj=utm +zone=31 +ellps=WGS84 +datum=WGS84 +units=m +no_defs"/>

    <poly id="102960230" type="building.yes" color="255,230,230" fill="1" layer="-1.00" shape="2279.945059,2349.121492 2279.468900,2348.856036 2277.705840,2352.047102 2280.025650,2353.328650 2281.781835,2350.137447 2279.945059,2349.121492"/>
    <poly id="102960230#1" type="man_made.monitoring_station" color="255,230,230" fill="1" layer="-1.00" shape="2279.945059,2349.121492 2279.468900,2348.856036 2277.705840,2352.047102 2280.025650,2353.328650 2281.781835,2350.137447 2279.945059,2349.121492"/>
    <poly id="128197806" type="amenity.parking" color="184,184,179" fill="1" layer="-1.00" shape="3275.303858,2447.035442 3300.696387,2421.727445 3275.759946,2397.078539 3250.664768,2422.648585 3257.927464,2429.816264 3268.577841,2440.201271 3275.303858,2447.035442"/>
    <poly id="134415941" type="leisure.garden" color="207,245,201" fill="0" layer="-2.00" shape="2787.920272,922.363882 2806.658611,917.446093"/>
    <poly id="134950467" type="amenity.marketplace" color="237,199,199" fill="0" layer="-1.00" shape="4111.032162,1666.095490 4123.043502,1633.808969 4196.437855,1661.222367"/>
    <poly id="134951120" type="amenity.marketplace" color="237,199,199" fill="0" layer="-1.00" shape="3840.787034,2024.594102 3839.545083,2026.126399 3831.160046,2036.224597"/>
    <poly id="134951122" type="amenity.marketplace" color="237,199,199" fill="0" layer="-1.00" shape="4086.480730,1696.312188 4071.444027,1716.420868 4064.079142,1722.333967"/>
    <poly id="134951160" type="amenity.marketplace" color="237,199,199" fill="0" layer="-1.00" shape="4086.480730,1696.312188 4097.397193,1686.277259 4099.058777,1684.753600 4111.032162,1666.095490"/>
    <poly id="136601722" type="building.apartments" color="255,230,230" fill="1" layer="-1.00" shape="3831.774689,1554.976491 3844.222960,1523.788600 3807.256342,1509.038651 3805.750360,1525.207213 3818.104017,1547.254592 3817.313186,1549.263379 3819.743414,1550.191862 3831.774689,1554.976491"/>
    <poly id="136900290" type="natural.water" color="181,209,209" fill="0" layer="-4.00" shape="2462.065564,295.695609 2473.208632,270.942368 2474.407261,266.772064 2468.205936,263.754678 2469.937064,259.795344 2471.105503,257.126408 2464.555148,254.013002 2463.340297,256.936898 2461.525460,261.295078 2439.789600,251.256599 2441.506556,246.974324 2442.911863,243.475714 2429.277228,237.104747 2428.931186,237.887719 2427.712604,240.655788 2425.873856,244.835487 2418.062271,241.474280 2414.064755,250.350164 2403.529090,274.681829 2401.966141,282.260429 2385.708680,278.685065 2373.472579,276.002714 2297.212731,259.273632 2215.787146,283.929947 2208.635259,286.100660 2145.509459,258.144453 2137.835830,273.644548 2128.321419,269.404117 2114.241157,299.684328 2123.194322,304.458648 2107.489601,339.234493 2165.125919,366.034382 2167.679116,363.960553 2195.414620,377.122107 2211.780673,384.192515 2257.338568,404.187082 2258.142179,404.603734 2262.270585,405.988286 2267.198255,406.977229 2273.905667,407.746003 2286.645444,406.232703 2317.945960,397.404177 2386.814867,376.725045 2432.238249,361.961700 2434.845592,356.173094"/>
    <poly id="136900313" type="landuse.forest" color="140,196,107" fill="1" layer="-3.00" shape="2592.703709,412.051367 2576.273675,448.524606 2572.789122,459.257572 2577.780645,451.258500 2594.623005,416.862957 2640.109708,321.763669 2639.880625,310.588795 2637.673530,310.499839 2637.699980,304.403457 2636.069331,304.392866 2620.699480,342.177915 2608.098879,371.963720 2592.703709,412.051367"/>
    <poly id="136900314" type="landuse.grass" color="194,194,130" fill="1" layer="-3.00" shape="2666.826565,316.449712 2668.943184,316.247590 2693.564013,313.873249 2703.188997,312.943521 2714.152078,312.541442 2715.811584,312.485886 2724.027018,312.184207 2732.724396,311.870005 2734.424099,308.455285 2730.339843,307.271496 2725.326612,305.746337 2719.780680,305.044876 2704.814444,304.676463 2699.031810,304.793562 2692.941007,305.861272 2674.895761,309.402797 2661.653126,312.629483 2656.507896,313.215627 2655.747679,326.017186 2655.909637,333.007424 2649.430007,348.597593 2646.998071,355.913857 2648.747586,356.171613 2653.537763,345.197977 2659.588461,332.113594 2666.826565,316.449712"/>
    <poly id="136900317" type="landuse.grass" color="194,194,130" fill="1" layer="-3.00" shape="2638.229604,284.599153 2643.916340,284.802699 2648.888962,284.246441 2654.934477,283.378028 2660.251610,282.116673 2659.139526,278.567405 2662.008674,277.902031 2672.149878,275.603047 2680.822400,274.476073 2682.393237,274.040442 2683.597371,270.971745 2687.236066,260.119570 2690.759515,250.889437 2691.508621,247.522302 2691.819810,243.690186 2691.545286,240.580567 2690.708718,236.335921 2688.456175,230.304872 2684.316134,224.714199 2678.342165,217.929499 2665.394200,202.760119 2661.612877,198.489533 2659.149630,197.449719 2644.405571,193.892881 2636.511845,192.220792 2631.325770,191.070525 2629.435931,195.727534 2632.590535,195.924574 2635.020325,195.550730 2640.769099,196.779088 2642.692101,198.675820 2645.011888,200.346905 2647.516117,201.743562 2651.174610,203.230224 2653.024379,203.979533 2654.739488,204.581495 2656.884879,205.002988 2659.824000,205.306961 2664.224729,207.865533 2670.242062,213.182488 2668.426379,215.181922 2662.092218,233.790088 2654.666288,258.773578 2648.176563,280.326951 2646.655831,281.008367 2640.596241,281.208961 2633.388648,279.984597 2631.451341,278.799627 2626.052796,275.219670 2621.969737,273.290569 2618.129856,272.612454 2614.898580,272.124608 2612.299646,270.648180 2609.431455,268.532163 2603.793022,262.510861 2601.762456,265.273667 2608.152984,271.877524 2612.147206,275.484813 2619.100145,278.762283 2625.302615,281.034458 2628.828635,282.262546 2632.177829,283.386944 2638.229604,284.599153"/>
    <poly id="136900742" type="natural.water" color="181,209,209" fill="1" layer="-4.00" shape="3145.490444,40.283534 3146.412979,36.864338 3149.491114,25.544962 3153.069121,16.049210 3158.240919,7.030754 3160.868312,0.642110 3162.994478,-8.182102 3163.447971,-19.365464 3161.841855,-27.052520 3158.362554,-36.713381 3152.675738,-47.130973 3147.867283,-57.085748 3138.705693,-68.552722 3133.279942,-71.811126 3123.399733,-75.315425 3115.096058,-76.128743 3110.320061,-74.767900 3102.578413,-71.386532 3095.480838,-65.143922 3090.716634,-60.623100 3083.307759,-56.000009 3074.973086,-52.897614 3065.655366,-50.527136 3061.299980,-50.225816 3056.036849,-50.977547 3050.195869,-50.038712 3045.780362,-48.125356 3042.334477,-45.836367 3038.481961,-41.475076 3036.017252,-38.020288 3028.628655,-20.780077 3024.621499,-13.874100 3017.251323,-2.307648 3008.396328,10.541643 2997.688670,24.488333 2982.385427,41.435139 2974.697566,47.276580 2976.036117,48.805608 2971.699914,52.589758 2970.738038,51.491122 2960.928275,60.516184 2951.665587,71.076547 2948.063623,75.988128 2942.335990,84.951056 2937.818539,93.282014 2934.543263,103.484945 2932.748832,117.711941 2931.829371,123.712413 2931.195069,137.740328 2929.964693,144.824845 2927.973678,150.047122 2924.386446,154.914512 2920.230873,158.279572 2913.825329,160.609002 2904.738952,160.748156 2885.825262,160.232750 2885.734470,161.321243 2880.134405,160.907787 2880.075803,160.061045 2869.620390,161.885993 2862.021834,161.955126 2855.072294,160.212745 2851.016736,158.284013 2840.782308,150.523069 2832.598230,142.436370 2824.822101,129.818604 2820.677646,122.403102 2818.111372,119.647764 2813.358180,116.481155 2807.512899,114.916881 2800.480125,115.932088 2794.557446,118.204657 2792.019785,120.512132 2791.109841,125.366862 2792.653734,130.704993 2795.182106,134.316238 2800.043329,138.608711 2804.832323,141.364376 2811.646025,147.454121 2822.687436,160.582780 2832.130968,168.661501 2839.574319,172.872611 2847.159073,174.850307 2853.889245,175.186403 2860.823628,174.269419 2867.067632,171.758649 2879.486811,166.057071 2879.564130,165.635852 2879.735872,165.650445 2885.328605,166.086005 2885.282985,166.641372 2894.181326,172.406171 2901.091454,176.439722 2907.532219,178.839441 2916.787331,180.906604 2929.095635,181.377712 2935.375539,181.860585 2941.404943,183.161713 2948.015573,184.986376 2951.364509,187.145679 2954.063081,190.159656 2954.959910,194.817224 2954.801732,198.218516 2953.108497,201.644423 2941.626459,214.095845 2936.807900,219.283251 2933.510366,223.778209 2930.321369,231.757730 2929.611938,235.537289 2929.370135,240.694765 2929.987960,244.857159 2931.507626,251.385308 2934.296471,259.808226 2938.469915,268.158983 2941.326433,275.615330 2942.313159,279.228890 2943.439804,284.091363 2944.002980,291.979791 2943.423217,297.174943 2941.816227,302.805500 2939.976217,307.708174 2938.027920,313.543227 2938.563905,313.921205 2936.280932,318.269769 2935.049858,317.555102 2931.832071,320.149163 2927.080645,321.677550 2919.529439,321.458275 2913.172334,320.717964 2900.812117,317.041612 2893.697523,314.283390 2867.258467,301.388863 2850.217104,294.391669 2845.003967,292.884606 2842.960088,292.209187 2841.453406,291.511233 2840.157039,290.962160 2837.985676,290.807081 2836.204804,291.761335 2835.021531,293.450825 2834.697028,294.868375 2835.859325,296.605199 2837.561879,298.508687 2840.056806,300.361413 2843.647061,301.813466 2845.928026,301.993011 2857.561120,306.922886 2865.099272,310.857812 2881.290279,319.751523 2889.936050,323.697725 2899.542937,327.073683 2911.711067,330.379004 2918.690420,331.654792 2922.319237,332.217620 2925.993987,331.869065 2929.625166,330.952217 2934.471342,328.480055 2937.969775,324.256176 2940.888903,320.777149 2940.318526,320.398476 2942.594623,316.049775 2943.507127,316.524366 2946.583915,311.713434 2949.174134,306.803667 2951.438618,299.283888 2952.423083,292.450298 2953.116586,280.604230 2953.972966,278.407502 2955.486502,277.403385 2961.287122,277.420454 2968.185609,277.593223 2975.501446,279.587938 2980.936253,282.723982 2985.509215,285.942745 2993.020422,292.569760 3000.034380,298.263296 3005.659052,301.536714 3009.855559,302.611741 3015.540924,302.882437 3019.880270,301.657323 3024.932978,297.142277 3029.322653,286.961932 3031.243363,276.030745 3033.650249,265.899319 3035.630991,261.188660 3037.619593,257.791003 3040.102594,255.126520 3041.430567,254.452449 3045.504434,253.767151 3049.268861,252.730698 3051.875892,251.759848 3052.834861,250.277261 3053.053775,248.979972 3051.942033,246.787960 3050.723551,245.450476 3049.026042,243.980921 3047.926557,243.224385 3040.928666,242.860359 3035.951753,244.984879 3031.775630,248.004532 3028.064781,251.155980 3024.569012,254.901445 3022.254785,258.748680 3018.695320,262.581868 3015.392402,262.915622 3009.244153,261.712131 3005.070851,262.551210 3001.543054,264.137641 2997.180303,268.221625 2994.168314,271.865631 2992.833745,273.207127 2991.508931,273.725514 2978.304120,270.977594 2970.514512,269.952370 2959.606601,271.022553 2959.663477,271.613368 2955.469507,271.773398 2955.478270,271.339669 2954.916252,271.228182 2953.745176,269.246385 2951.201470,264.700178 2949.609297,260.740612 2948.251114,255.417302 2947.426310,250.260530 2948.036861,239.113710 2949.059818,232.759306 2952.014937,225.798643 2957.890260,216.671826 2963.401075,206.514079 2965.453691,199.946842 2966.580841,193.205144 2966.425430,188.295536 2965.978519,184.870892 2963.552150,178.602556 2960.372006,173.197928 2956.971717,170.514671 2946.433840,160.410961 2941.691699,154.318370 2939.783433,147.949256 2938.845307,143.290858 2939.136671,138.746302 2940.065499,129.897822 2942.291833,119.840592 2945.111877,111.052568 2949.649995,101.698463 2957.155427,85.806725 2967.535724,72.042479 2978.480287,60.325673 2977.202076,58.875744 2981.505907,54.990812 2982.898586,56.565439 2989.706000,51.384889 3003.156943,38.239059 3016.259969,21.882005 3032.664806,-2.229684 3037.472933,-9.608995 3042.707875,-15.633452 3052.763154,-25.554586 3059.093946,-30.978326 3065.189144,-34.960473 3074.757778,-38.850107 3085.642641,-39.086094 3097.857726,-35.000595 3105.903117,-31.288699 3116.961891,-25.835823 3123.754545,-21.092297 3131.028065,-15.626979 3135.366196,-9.976292 3139.112588,-2.290432 3141.411499,6.189443 3141.971475,16.603388 3140.228727,27.226619 3138.299515,33.462517 3140.263521,34.347827 3138.905497,38.203241 3137.079196,37.654492 3134.193464,45.929303 3129.612650,54.993119 3126.644347,59.527998 3117.900195,71.311270 3110.084340,79.731100 3105.415560,84.643238 3098.660719,94.364017 3093.634693,105.710768 3091.837260,113.940863 3091.003081,122.179320 3091.135847,129.903301 3093.317512,143.498644 3095.028291,150.776142 3098.460923,156.619873 3101.695577,161.024375 3105.157517,162.017861 3106.806831,159.748195 3107.908750,154.263226 3108.164371,146.391341 3107.722898,136.580590 3107.876202,130.364377 3109.477293,121.295880 3110.996708,113.883473 3114.989016,104.651973 3120.510394,93.993939 3131.076074,77.552454 3136.701947,67.174697 3140.471989,58.728647 3143.134901,50.582839 3145.490444,40.283534"/>
    <poly id="136900836" type="landuse.grass" color="194,194,130" fill="1" layer="-3.00" shape="2721.278732,215.023162 2719.188959,219.353463 2718.297846,222.595348 2718.559021,223.635309 2718.639206,226.485119 2721.048601,228.146921 2725.273324,234.996544 2728.189821,233.008196 2729.882879,236.068533 2734.338566,246.138165 2736.205399,252.183712 2738.579053,255.958697 2742.277949,260.216558 2746.808542,264.179670 2761.925951,272.072270 2802.712535,292.832299 2805.212874,292.370956 2807.023144,287.912667 2804.151298,286.664272 2801.219564,285.314539 2799.444612,284.611186 2797.560501,283.861128 2768.658086,270.939695 2768.405148,269.833143 2775.828053,254.239888 2776.032390,252.297000 2770.410066,251.627322 2762.125136,249.568866 2754.335158,247.876427 2750.954174,243.891986 2744.136125,237.679850 2737.354606,229.654961 2735.216163,226.841535 2725.085823,215.622814 2722.430444,214.556844 2721.278732,215.023162"/>
    <poly id="136900854" type="landuse.grass" color="194,194,130" fill="1" layer="-3.00" shape="2884.971728,170.128580 2886.530121,173.720291 2889.311200,177.080795 2891.446153,179.382433 2893.577534,180.838441 2894.780094,181.263250 2901.760924,182.817182 2908.482890,184.922185 2919.274568,188.934017 2928.668378,192.650618 2931.965657,194.641978 2934.382800,197.961781 2934.923422,201.176925 2934.406190,205.661290 2932.566041,211.932435 2918.425028,243.944940 2915.250975,250.845571 2914.086028,253.670242 2914.047396,255.583095 2914.169891,257.354567 2915.365186,260.182403 2924.883765,280.200784 2925.862050,283.892050 2926.292973,287.427625 2926.130043,290.383791 2925.560298,293.721141 2925.285375,296.430278 2925.119720,300.543469 2926.039913,304.044424 2926.732502,305.527016 2928.535951,307.543832 2930.632926,309.677836 2934.691389,311.795834 2934.538854,312.193280 2938.027920,313.543227 2939.976217,307.708174 2941.816227,302.805500 2943.423217,297.174943 2944.002980,291.979791 2943.439804,284.091363 2942.313159,279.228890 2941.326433,275.615330 2938.469915,268.158983 2934.296471,259.808226 2931.507626,251.385308 2929.987960,244.857159 2929.370135,240.694765 2929.611938,235.537289 2930.321369,231.757730 2933.510366,223.778209 2936.807900,219.283251 2941.626459,214.095845 2953.108497,201.644423 2954.801732,198.218516 2954.959910,194.817224 2954.063081,190.159656 2951.364509,187.145679 2948.015573,184.986376 2941.404943,183.161713 2935.375539,181.860585 2929.095635,181.377712 2916.787331,180.906604 2907.532219,178.839441 2901.091454,176.439722 2894.181326,172.406171 2885.282985,166.641372 2884.971728,170.128580"/>
    <poly id="136900989" type="landuse.forest" color="140,196,107" fill="1" layer="-3.00" shape="3085.561743,297.945677 3087.638082,291.913002 3106.138565,249.230512 3122.204147,213.307790 3124.859476,209.612136 3127.467516,207.573269 3132.117790,207.311359 3163.665105,218.730841 3204.762541,232.925129 3235.687859,243.442415 3249.566425,248.596715 3293.758980,264.879362 3295.482515,257.593524 3130.105472,197.936094 3125.889992,197.795151 3122.027884,199.574999 3119.143659,203.699928 3089.431439,272.657167 3081.360455,295.746785 3085.561743,297.945677"/>
    <poly id="136900990" type="landuse.grass" color="194,194,130" fill="1" layer="-3.00" shape="3155.813993,227.539286 3147.299890,224.908134 3139.140441,222.773710 3134.394482,224.023871 3131.392477,229.548259 3109.521098,282.031028 3160.767394,302.037743 3163.936449,291.321009 3173.745943,293.522265 3179.891263,278.215222 3171.387646,265.214998 3167.635439,264.627240 3165.224963,266.425319 3163.089608,274.348154 3165.277136,279.143157 3160.639740,291.688171 3143.279657,283.114779 3144.296803,280.798951 3128.514623,274.160063 3140.861613,242.111795 3145.758035,236.147350 3149.169115,232.511510 3152.947138,232.165209 3155.813993,227.539286"/>
    <poly id="136900991" type="natural.water" color="181,209,209" fill="1" layer="-4.00" shape="3161.490132,229.289689 3202.721073,241.984683 3218.224038,247.461065 3238.521474,254.725755 3248.331012,256.927157 3288.168343,270.117544 3295.865108,272.665617 3330.163524,284.798369 3331.382037,284.433676 3332.582626,279.184392 3331.904133,278.369574 3299.776595,267.093005 3293.758980,264.879362 3249.566425,248.596715 3235.687859,243.442415 3204.762541,232.925129 3163.665105,218.730841 3132.117790,207.311359 3127.467516,207.573269 3124.859476,209.612136 3122.204147,213.307790 3106.138565,249.230512 3087.638082,291.913002 3085.561743,297.945677 3084.515572,301.017481 3083.842703,302.984259 3083.462523,304.089147 3071.743107,338.475527 3071.306509,345.431439 3072.365516,351.249397 3073.208999,354.114661 3075.979271,355.617052 3083.960521,356.345925 3084.012462,355.479165 3091.418172,358.466068 3094.639840,360.444885 3098.718503,365.300373 3102.300015,370.579711 3107.941623,377.769871 3111.785268,382.676244 3115.497851,384.197727 3122.520381,385.374546 3134.275183,385.289810 3142.315060,384.139705 3148.529623,381.039026 3153.709654,379.074493 3158.458223,365.452523 3160.474421,359.674552 3161.135756,352.500678 3160.608156,349.330270 3157.179037,344.343245 3150.873626,336.972704 3149.544539,334.642759 3147.284210,330.725227 3144.061419,325.742389 3142.762316,320.231076 3142.992659,313.270992 3142.632427,311.350064 3140.582914,309.595207 3137.430867,309.275512 3135.482507,310.682429 3133.265615,313.797284 3133.129778,317.788693 3133.466027,320.554696 3141.423490,335.379557 3148.736943,344.283600 3153.369741,350.997233 3153.377053,357.094316 3153.196373,362.620178 3153.067398,366.611727 3143.564334,374.774824 3139.744298,376.522128 3130.452134,372.907303 3126.223045,372.766079 3119.582872,374.456323 3114.895506,373.838551 3111.342468,372.253543 3110.258030,371.775441 3106.627312,367.908076 3102.639983,360.239605 3100.978607,353.586143 3097.058810,351.081410 3092.618368,350.502033 3087.947305,349.417334 3085.186483,347.447844 3084.859948,343.180061 3088.503207,332.484004 3097.767911,310.252983 3099.011990,307.263066 3100.262949,304.273288 3109.521098,282.031028 3131.392477,229.548259 3134.394482,224.023871 3139.140441,222.773710 3147.299890,224.908134 3155.813993,227.539286 3159.828315,228.777636 3161.490132,229.289689"/>
    <poly id="136901013" type="landuse.grass" color="194,194,130" fill="1" layer="-3.00" shape="3209.422607,376.564552 3235.192628,387.099828 3236.649541,383.457833 3246.645028,351.339911 3249.507335,349.996059 3250.382591,350.269689 3250.099163,346.258657 3250.707109,342.065423 3253.167289,338.833165 3258.972517,333.866315 3257.194116,330.959819 3256.343403,328.116626 3256.493311,323.435702 3254.658769,321.941046 3239.324989,316.278830 3233.964431,336.319044 3234.366348,338.218573 3240.921637,339.363838 3242.756627,340.836247 3243.132282,343.692063 3241.631250,346.454225 3238.337381,346.342983 3234.134075,345.267624 3234.108269,346.201668 3233.515065,347.969778 3228.842938,348.976576 3227.816527,351.748357 3226.847928,352.685553 3223.095792,352.097753 3220.250509,352.941303 3219.193781,356.190881 3216.715384,360.323976 3214.287918,362.622347 3209.422607,376.564552"/>
    <poly id="136901014" type="landuse.forest" color="140,196,107" fill="1" layer="-3.00" shape="3207.522361,313.765436 3219.383454,319.312701 3217.413731,324.490799 3221.600492,326.044217 3205.020733,374.762018 3209.422607,376.564552 3214.287918,362.622347 3216.715384,360.323976 3219.193781,356.190881 3220.250509,352.941303 3223.095792,352.097753 3226.847928,352.685553 3227.816527,351.748357 3228.842938,348.976576 3233.515065,347.969778 3234.108269,346.201668 3234.134075,345.267624 3238.337381,346.342983 3241.631250,346.454225 3243.132282,343.692063 3242.756627,340.836247 3240.921637,339.363838 3234.366348,338.218573 3233.964431,336.319044 3239.324989,316.278830 3254.658769,321.941046 3256.493311,323.435702 3256.343403,328.116626 3257.194116,330.959819 3258.972517,333.866315 3253.167289,338.833165 3250.707109,342.065423 3250.099163,346.258657 3250.382591,350.269689 3260.693168,353.204451 3262.462769,356.544677 3262.321645,360.791873 3260.736071,366.367144 3260.153253,369.659696 3261.455116,372.990443 3264.438912,376.177264 3270.878816,358.228354 3272.922444,353.140779 3277.288905,354.653384 3285.635030,326.518516 3274.432108,321.774363 3277.084625,312.449074 3277.676250,308.722796 3274.957183,305.374447 3274.507144,304.831287 3269.885333,302.334440 3262.810866,303.036626 3259.403179,302.088629 3258.506650,305.241314 3255.179841,306.075087 3249.089661,305.406513 3242.557774,303.783303 3237.945411,300.819394 3230.887289,301.054673 3226.583087,303.259388 3222.589196,310.187732 3219.210791,312.889618 3214.481235,313.672750 3209.293404,313.979321 3207.522361,313.765436"/>
    <poly id="136901017" type="landuse.grass" color="194,194,130" fill="1" layer="-3.00" shape="3210.755452,283.924780 3200.812984,312.071931 3204.145357,313.341011 3207.522361,313.765436 3209.293404,313.979321 3214.481235,313.672750 3219.210791,312.889618 3222.589196,310.187732 3226.583087,303.259388 3230.887289,301.054673 3237.945411,300.819394 3242.557774,303.783303 3249.089661,305.406513 3255.179841,306.075087 3258.506650,305.241314 3259.403179,302.088629 3255.346316,300.916089 3210.755452,283.924780"/>
    <poly id="136901021" type="landuse.grass" color="194,194,130" fill="1" layer="-3.00" shape="3248.331012,256.927157 3238.521474,254.725755 3218.224038,247.461065 3207.536212,275.370591 3213.578329,278.074161 3259.657187,298.722659 3265.770823,298.913311 3268.165427,297.559991 3276.378594,276.665310 3288.168343,270.117544 3248.331012,256.927157"/>
    <poly id="136901031" type="landuse.grass" color="194,194,130" fill="1" layer="-3.00" shape="3332.582626,279.184392 3331.382037,284.433676 3330.163524,284.798369 3295.865108,272.665617 3295.598238,278.701518 3324.937315,287.674104 3327.214218,290.090073 3327.040339,295.271172 3323.457771,303.965658 3318.155158,322.148959 3319.947962,325.022392 3305.624669,364.896130 3300.432550,379.332290 3307.377357,379.250577 3313.222059,372.337574 3316.041302,372.439242 3320.303316,371.635600 3327.100423,365.264838 3334.250594,362.183358 3338.248205,358.470533 3344.046895,340.597710 3346.951371,348.033031 3352.374022,354.807380 3366.765854,365.846859 3374.032010,347.213905 3381.043932,329.243351 3402.937724,337.842836 3414.195765,309.689373 3407.154600,307.054288 3397.238118,303.348415 3384.330274,298.524914 3366.156751,291.736613 3352.470338,286.619257 3332.582626,279.184392"/>
    <poly id="136901032" type="landuse.grass" color="194,194,130" fill="1" layer="-3.00" shape="3301.269612,363.161214 3311.122809,336.047135 3309.863812,331.282015 3320.819127,298.349250 3320.492111,294.114813 3319.615380,292.216774 3319.082915,292.005713 3301.488551,285.496413 3292.628100,283.325270 3290.727488,283.731774 3283.491572,303.600416 3282.899265,307.360057 3283.275577,310.182513 3284.152092,312.091667 3283.552908,315.851168 3282.058724,318.613458 3281.934606,322.360338 3283.295202,323.812020 3285.597245,325.327289 3285.635030,326.518516 3277.288905,354.653384 3301.269612,363.161214"/>
    <poly id="136901033" type="landuse.forest" color="140,196,107" fill="1" layer="-3.00" shape="3298.602134,384.424177 3294.872302,394.617680 3291.470272,403.916640 3289.161620,403.068781 3273.762745,399.274265 3271.826673,401.093033 3268.826522,406.183473 3267.118895,417.441554 3270.795992,417.994491 3272.539748,422.268765 3291.499299,430.997438 3292.383155,419.644783 3292.006860,416.822326 3290.665908,414.403094 3290.935720,410.937312 3305.776899,398.454646 3310.549239,396.237240 3318.981781,397.442925 3322.644342,400.409905 3328.057045,404.280192 3327.482638,410.888399 3333.572005,411.590434 3337.359384,410.777182 3340.761699,407.575199 3341.445049,401.024832 3342.053745,396.798244 3344.496931,394.066346 3351.696133,389.584034 3358.259023,387.636635 3366.765854,365.846859 3352.374022,354.807380 3346.951371,348.033031 3344.046895,340.597710 3338.248205,358.470533 3334.250594,362.183358 3327.100423,365.264838 3320.303316,371.635600 3316.041302,372.439242 3313.222059,372.337574 3307.377357,379.250577 3300.432550,379.332290 3298.602134,384.424177"/>
    <poly id="136901036" type="landuse.grass" color="194,194,130" fill="1" layer="-3.00" shape="3291.499299,430.997438 3300.436734,435.128291 3335.801934,451.265790 3344.566997,456.427928 3356.382283,460.817521 3368.950138,427.094255 3367.236087,426.447562 3359.833899,423.638326 3346.398514,418.036531 3358.259023,387.636635 3351.696133,389.584034 3344.496931,394.066346 3342.053745,396.798244 3341.445049,401.024832 3340.761699,407.575199 3337.359384,410.777182 3333.572005,411.590434 3327.482638,410.888399 3328.057045,404.280192 3322.644342,400.409905 3318.981781,397.442925 3310.549239,396.237240 3305.776899,398.454646 3290.935720,410.937312 3290.665908,414.403094 3292.006860,416.822326 3292.383155,419.644783 3291.499299,430.997438"/>
    <poly id="136901037" type="landuse.grass" color="194,194,130" fill="1" layer="-3.00" shape="3258.313030,519.542604 3279.230831,530.091060 3296.242119,492.007380 3297.884983,487.000696 3297.797242,483.182766 3296.859192,479.558986 3293.381824,476.284256 3289.447785,473.812454 3285.034306,473.266826 3280.783886,474.181988 3275.381324,477.621610 3258.313030,519.542604"/>
    <poly id="136901039" type="landuse.grass" color="194,194,130" fill="1" layer="-3.00" shape="3240.543568,602.192139 3242.063075,603.268755 3263.452966,610.878384 3266.800681,612.058818 3274.640451,598.021195 3283.588193,602.307998 3287.972994,595.098358 3277.629650,588.713857 3271.193109,589.873982 3264.208912,590.555731 3258.564238,589.651396 3252.965547,587.157008 3241.827898,581.257147 3218.939349,569.155808 3214.892305,569.207331 3213.611290,569.604160 3210.385039,571.597078 3210.179730,572.560864 3209.139654,577.368393 3211.650581,581.135276 3219.364888,587.210481 3240.543568,602.192139"/>
    <poly id="136901041" type="landuse.grass" color="194,194,130" fill="1" layer="-3.00" shape="3183.632576,569.186086 3170.988463,601.995913 3223.621676,621.297178 3224.805783,618.550843 3232.914678,604.129209 3183.632576,569.186086"/>
    <poly id="136901044" type="landuse.grass" color="194,194,130" fill="1" layer="-3.00" shape="3168.743846,606.144888 3158.282766,632.757374 3179.480995,641.675609 3181.923493,637.608527 3186.178123,635.458407 3190.470694,635.511968 3193.559519,636.564725 3195.324293,638.781127 3196.209142,641.636129 3196.707350,644.216280 3195.948486,648.050438 3217.078139,656.611421 3219.985414,657.794027 3222.457216,658.055496 3222.713709,650.150245 3220.384063,642.192600 3219.523725,634.732007 3220.803821,627.926697 3221.259219,626.845595 3168.743846,606.144888"/>