<?xml version="1.0" encoding="UTF-8"?>

<!-- generated on 02/13/19 14:15:20 by Eclipse SUMO duarouter Version v1_1_0+0666-d03de0290d
<configuration xmlns:xsi="http://www.w3.org/2001/XMLSchema-instance" xsi:noNamespaceSchemaLocation="http://sumo.dlr.de/xsd/duarouterConfiguration.xsd">

    <input>
        <net-file value="D:\Wang\sumo_git\tools\2019-02-13-14-13-18\osm.net.xml"/>
        <route-files value="D:\Wang\sumo_git\tools\2019-02-13-14-13-18\osm.truck.trips.xml"/>
    </input>

    <output>
        <output-file value="D:\Wang\sumo_git\tools\2019-02-13-14-13-18\osm.truck.trips.xml.tmp"/>
        <write-trips value="true"/>
    </output>

    <time>
        <begin value="0"/>
        <end value="3600.0"/>
    </time>

    <report>
        <no-warnings value="true"/>
        <ignore-errors value="true"/>
        <no-step-log value="true"/>
    </report>

</configuration>
-->

<routes xmlns:xsi="http://www.w3.org/2001/XMLSchema-instance" xsi:noNamespaceSchemaLocation="http://sumo.dlr.de/xsd/routes_file.xsd">
    <vType id="truck_truck" vClass="truck"/>
    <trip id="truck2" type="truck_truck" depart="3.29" departLane="best" from="7525896#2" to="-628756768"/>
    <trip id="truck4" type="truck_truck" depart="6.59" departLane="best" from="-7525828" to="51166335#1"/>
    <trip id="truck5" type="truck_truck" depart="8.24" departLane="best" from="7515060#3" to="61888287#1"/>
    <trip id="truck9" type="truck_truck" depart="14.82" departLane="best" from="272689006#1" to="-7522972#0"/>
    <trip id="truck11" type="truck_truck" depart="18.12" departLane="best" from="7525687#0" to="7514098#4"/>
    <trip id="truck16" type="truck_truck" depart="26.35" departLane="best" from="7522819" to="-398656394"/>
    <trip id="truck18" type="truck_truck" depart="29.65" departLane="best" from="-643106957#1" to="-7526742"/>
    <trip id="truck23" type="truck_truck" depart="37.88" departLane="best" departSpeed="max" from="-7523096#1" to="7523043#3"/>
    <trip id="truck25" type="truck_truck" depart="41.18" departLane="best" from="7527005" to="7515100#4"/>
    <trip id="truck26" type="truck_truck" depart="42.82" departLane="best" from="61913621" to="7522805#0"/>
    <trip id="truck27" type="truck_truck" depart="44.47" departLane="best" from="7525665#2" to="7523271"/>
    <trip id="truck29" type="truck_truck" depart="47.76" departLane="best" from="185437745" to="131077047#0"/>
    <trip id="truck32" type="truck_truck" depart="52.71" departLane="best" from="7525968#6" to="49076515#0"/>
    <trip id="truck34" type="truck_truck" depart="56.00" departLane="best" departSpeed="max" from="628756768" to="130209605#5"/>
    <trip id="truck38" type="truck_truck" depart="62.59" departLane="best" departSpeed="max" from="-499246571" to="386748740#2"/>
    <trip id="truck44" type="truck_truck" depart="72.47" departLane="best" from="504542521#0" to="-7523123"/>
    <trip id="truck46" type="truck_truck" depart="75.76" departLane="best" from="7514052#0" to="-7522966#0"/>
    <trip id="truck55" type="truck_truck" depart="90.59" departLane="best" from="49076563#3" to="61913620"/>
    <trip id="truck72" type="truck_truck" depart="118.59" departLane="best" departSpeed="max" from="7526984" to="-7514033#0"/>
    <trip id="truck89" type="truck_truck" depart="146.59" departLane="best" from="59109996" to="7523120#2"/>
    <trip id="truck90" type="truck_truck" depart="148.23" departLane="best" from="-492717172#1" to="71190299"/>
    <trip id="truck91" type="truck_truck" depart="149.88" departLane="best" from="504630482#0" to="7525761#1"/>
    <trip id="truck94" type="truck_truck" depart="154.82" departLane="best" departSpeed="max" from="71166879" to="7515451#5"/>
    <trip id="truck101" type="truck_truck" depart="166.35" departLane="best" from="185437765#1" to="7523134"/>
    <trip id="truck106" type="truck_truck" depart="174.59" departLane="best" from="7525836" to="7525863"/>
    <trip id="truck110" type="truck_truck" depart="181.18" departLane="best" from="7515100#1" to="-147059787#3"/>
    <trip id="truck114" type="truck_truck" depart="187.76" departLane="best" from="7522946" to="-7525593#3"/>
    <trip id="truck123" type="truck_truck" depart="202.59" departLane="best" from="-7522966#3" to="-7515393"/>
    <trip id="truck128" type="truck_truck" depart="210.82" departLane="best" from="-7523029#0" to="7526733#1"/>
    <trip id="truck129" type="truck_truck" depart="212.47" departLane="best" from="7525772#0" to="7526919"/>
    <trip id="truck135" type="truck_truck" depart="222.35" departLane="best" from="7523274" to="-7514169#0"/>
    <trip id="truck136" type="truck_truck" depart="224.00" departLane="best" from="-7525851#6" to="7523403#1"/>
    <trip id="truck138" type="truck_truck" depart="227.29" departLane="best" from="7523329#3" to="-7525968#5"/>
    <trip id="truck139" type="truck_truck" depart="228.94" departLane="best" departSpeed="max" from="256766540" to="7525805"/>
    <trip id="truck140" type="truck_truck" depart="230.59" departLane="best" from="7526885#1" to="142153165#1"/>
    <trip id="truck146" type="truck_truck" depart="240.47" departLane="best" from="7514037#1" to="527851317#0"/>
    <trip id="truck148" type="truck_truck" depart="243.76" departLane="best" from="53885070" to="7523013#2"/>
    <trip id="truck155" type="truck_truck" depart="255.29" departLane="best" from="7525923#2" to="7514186#0"/>
    <trip id="truck156" type="truck_truck" depart="256.94" departLane="best" from="148106208#1" to="61888290#5"/>
    <trip id="truck161" type="truck_truck" depart="265.18" departLane="best" from="-71190299" to="529253305#2"/>
    <trip id="truck165" type="truck_truck" depart="271.76" departLane="best" from="7525710" to="-510801345"/>
    <trip id="truck172" type="truck_truck" depart="283.29" departLane="best" departSpeed="max" from="-7526868" to="7525747#3"/>
    <trip id="truck183" type="truck_truck" depart="301.41" departLane="best" from="588744505#1" to="-7522817#0"/>
    <trip id="truck189" type="truck_truck" depart="311.29" departLane="best" from="342124684" to="-138999778#1"/>
    <trip id="truck190" type="truck_truck" depart="312.94" departLane="best" departSpeed="max" from="314449726#0" to="7523140#0"/>
    <trip id="truck191" type="truck_truck" depart="314.59" departLane="best" from="7525747#3" to="7526855"/>
    <trip id="truck195" type="truck_truck" depart="321.17" departLane="best" from="426887059#3" to="-7523048#0"/>
    <trip id="truck197" type="truck_truck" depart="324.47" departLane="best" from="7514106#1" to="-256766540"/>
    <trip id="truck199" type="truck_truck" depart="327.76" departLane="best" departSpeed="max" from="-292763599" to="7515137#2"/>
    <trip id="truck200" type="truck_truck" depart="329.41" departLane="best" from="-7522869#0" to="49076528#3"/>
    <trip id="truck203" type="truck_truck" depart="334.35" departLane="best" from="7523127#2" to="384731189#1"/>
    <trip id="truck204" type="truck_truck" depart="336.00" departLane="best" from="7523093#0" to="7525627#1"/>
    <trip id="truck214" type="truck_truck" depart="352.47" departLane="best" from="7522357#1" to="7523209#3"/>
    <trip id="truck216" type="truck_truck" depart="355.76" departLane="best" from="7523069#1" to="-7514808#0"/>
    <trip id="truck217" type="truck_truck" depart="357.41" departLane="best" departSpeed="max" from="7523399#0" to="7526883#2"/>
    <trip id="truck221" type="truck_truck" depart="364.00" departLane="best" from="-7514184#3" to="7523242#0"/>
    <trip id="truck222" type="truck_truck" depart="365.65" departLane="best" from="-7515403#1" to="7526981"/>
    <trip id="truck232" type="truck_truck" depart="382.12" departLane="best" from="538581307" to="498957011#0"/>
    <trip id="truck233" type="truck_truck" depart="383.76" departLane="best" from="477471927" to="7523049#1"/>
    <trip id="truck234" type="truck_truck" depart="385.41" departLane="best" from="131077037#1" to="7525760#6"/>
    <trip id="truck235" type="truck_truck" depart="387.06" departLane="best" from="7525591" to="-628756768"/>
    <trip id="truck237" type="truck_truck" depart="390.35" departLane="best" departSpeed="max" from="34038980" to="-272689005#0"/>
    <trip id="truck240" type="truck_truck" depart="395.29" departLane="best" from="-184643099#1" to="7526839#1"/>
    <trip id="truck243" type="truck_truck" depart="400.23" departLane="best" from="495632749" to="7523361#0"/>
    <trip id="truck245" type="truck_truck" depart="403.53" departLane="best" from="7515451#7" to="185437765#0"/>
    <trip id="truck251" type="truck_truck" depart="413.41" departLane="best" from="538579735" to="7523178#0"/>
    <trip id="truck254" type="truck_truck" depart="418.35" departLane="best" from="137688693" to="-7514037#0"/>
    <trip id="truck255" type="truck_truck" depart="420.00" departLane="best" from="-7523255#2" to="-7525927"/>
    <trip id="truck259" type="truck_truck" depart="426.59" departLane="best" from="7515568#1" to="-7515364#1"/>
    <trip id="truck260" type="truck_truck" depart="428.23" departLane="best" from="7525780#2" to="504540606"/>
    <trip id="truck263" type="truck_truck" depart="433.17" departLane="best" departSpeed="max" from="7526791" to="494143965#2"/>
    <trip id="truck264" type="truck_truck" depart="434.82" departLane="best" from="7523399#13" to="429613778"/>
    <trip id="truck267" type="truck_truck" depart="439.76" departLane="best" from="633328431" to="184643098#2"/>
    <trip id="truck268" type="truck_truck" depart="441.41" departLane="best" departSpeed="max" from="7527028#0" to="-7514998#1"/>
    <trip id="truck269" type="truck_truck" depart="443.06" departLane="best" from="7523140#2" to="7514106#1"/>
    <trip id="truck272" type="truck_truck" depart="448.00" departLane="best" from="7527006" to="185437744"/>
    <trip id="truck280" type="truck_truck" depart="461.17" departLane="best" from="7515450#8" to="7526708"/>
    <trip id="truck283" type="truck_truck" depart="466.12" departLane="best" from="7515031" to="7525964#0"/>
    <trip id="truck285" type="truck_truck" depart="469.41" departLane="best" from="-7523067#0" to="186949584#3"/>
    <trip id="truck297" type="truck_truck" depart="489.17" departLane="best" from="7525970#1" to="-7523136#0"/>
    <trip id="truck311" type="truck_truck" depart="512.23" departLane="best" from="7514052#0" to="-7526813"/>
    <trip id="truck312" type="truck_truck" depart="513.88" departLane="best" departSpeed="max" from="-7523043#3" to="623095349"/>
    <trip id="truck314" type="truck_truck" depart="517.17" departLane="best" from="7527023" to="7525976#0"/>
    <trip id="truck316" type="truck_truck" depart="520.47" departLane="best" from="7525594#0" to="509256245"/>
    <trip id="truck318" type="truck_truck" depart="523.76" departLane="best" departSpeed="max" from="131077088#0" to="7525641"/>
    <trip id="truck319" type="truck_truck" depart="525.41" departLane="best" from="7526947#1" to="-7526888"/>
    <trip id="truck325" type="truck_truck" depart="535.29" departLane="best" from="137688693" to="177972950#0"/>
    <trip id="truck328" type="truck_truck" depart="540.23" departLane="best" from="53885070" to="292763621"/>
    <trip id="truck331" type="truck_truck" depart="545.17" departLane="best" from="-7523198#1" to="7522874#1"/>
    <trip id="truck334" type="truck_truck" depart="550.11" departLane="best" from="7523380#1" to="397497469#2"/>
    <trip id="truck335" type="truck_truck" depart="551.76" departLane="best" from="7515235#1" to="7525590#0"/>
    <trip id="truck336" type="truck_truck" depart="553.41" departLane="best" from="7526953#0" to="504630484"/>
    <trip id="truck337" type="truck_truck" depart="555.06" departLane="best" from="-339182298#1" to="510639066"/>
    <trip id="truck339" type="truck_truck" depart="558.35" departLane="best" from="7525823" to="48247743#6"/>
    <trip id="truck341" type="truck_truck" depart="561.64" departLane="best" departSpeed="max" from="7522966#0" to="45266152#1"/>
    <trip id="truck344" type="truck_truck" depart="566.59" departLane="best" from="7515060#3" to="7525760#6"/>
    <trip id="truck348" type="truck_truck" depart="573.17" departLane="best" departSpeed="max" from="-527657594" to="7515023#2"/>
    <trip id="truck352" type="truck_truck" depart="579.76" departLane="best" from="7525816" to="48247752"/>
    <trip id="truck353" type="truck_truck" depart="581.41" departLane="best" departSpeed="max" from="147197768" to="364480061"/>
    <trip id="truck354" type="truck_truck" depart="583.06" departLane="best" departSpeed="max" from="-7522955" to="54512989#3"/>
    <trip id="truck359" type="truck_truck" depart="591.29" departLane="best" from="-7527028#0" to="129929611#1"/>
    <trip id="truck360" type="truck_truck" depart="592.94" departLane="best" from="-177972948" to="7523381#1"/>
    <trip id="truck361" type="truck_truck" depart="594.58" departLane="best" from="-7523043#2" to="48247744#0"/>
    <trip id="truck363" type="truck_truck" depart="597.88" departLane="best" from="7514972" to="474651518#0"/>
    <trip id="truck365" type="truck_truck" depart="601.17" departLane="best" departSpeed="max" from="-7523299" to="397497464#5"/>
    <trip id="truck369" type="truck_truck" depart="607.76" departLane="best" from="7526927" to="7515360#0"/>
    <trip id="truck370" type="truck_truck" depart="609.41" departLane="best" departSpeed="max" from="131077088#0" to="666374663#2"/>
    <trip id="truck372" type="truck_truck" depart="612.70" departLane="best" from="-465277872#1" to="7514106#1"/>
    <trip id="truck373" type="truck_truck" depart="614.35" departLane="best" from="503858820#3" to="7525933#4"/>
    <trip id="truck383" type="truck_truck" depart="630.82" departLane="best" from="54512989#3" to="7526890#0"/>
    <trip id="truck386" type="truck_truck" depart="635.76" departLane="best" departSpeed="max" from="272689006#0" to="-7514812#0"/>
    <trip id="truck389" type="truck_truck" depart="640.70" departLane="best" from="7522966#3" to="7526947#0"/>
    <trip id="truck391" type="truck_truck" depart="644.00" departLane="best" from="325773886#3" to="7523343#2"/>
    <trip id="truck393" type="truck_truck" depart="647.29" departLane="best" from="7515364#2" to="71194184"/>
    <trip id="truck394" type="truck_truck" depart="648.94" departLane="best" from="7523399#3" to="7526792#2"/>
    <trip id="truck401" type="truck_truck" depart="660.47" departLane="best" from="-7522869#0" to="488658842#2"/>
    <trip id="truck405" type="truck_truck" depart="667.06" departLane="best" from="7526839#1" to="-27958733"/>
    <trip id="truck413" type="truck_truck" depart="680.23" departLane="best" from="7523273" to="-7526888"/>
    <trip id="truck415" type="truck_truck" depart="683.53" departLane="best" departSpeed="max" from="-527657594" to="7523198#3"/>
    <trip id="truck416" type="truck_truck" depart="685.17" departLane="best" from="7525800" to="270659692#0"/>
    <trip id="truck419" type="truck_truck" depart="690.11" departLane="best" from="-7526872#0" to="-7523111"/>
    <trip id="truck423" type="truck_truck" depart="696.70" departLane="best" departSpeed="max" from="7523048#0" to="538579716"/>
    <trip id="truck425" type="truck_truck" depart="700.00" departLane="best" from="-7514998#0" to="51166334#0"/>
    <trip id="truck426" type="truck_truck" depart="701.64" departLane="best" from="7526794" to="-384731189#0"/>
    <trip id="truck427" type="truck_truck" depart="703.29" departLane="best" departSpeed="max" from="7523247" to="7525823"/>
    <trip id="truck429" type="truck_truck" depart="706.58" departLane="best" departSpeed="max" from="491452678#0" to="432090896"/>
    <trip id="truck432" type="truck_truck" depart="711.53" departLane="best" departSpeed="max" from="7514188#0" to="61912072#0"/>
    <trip id="truck440" type="truck_truck" depart="724.70" departLane="best" from="338856485#4" to="-7522966#0"/>
    <trip id="truck441" type="truck_truck" depart="726.35" departLane="best" from="7526702" to="-494143965#3"/>
    <trip id="truck446" type="truck_truck" depart="734.58" departLane="best" from="7522962#1" to="7526887#0"/>
    <trip id="truck448" type="truck_truck" depart="737.88" departLane="best" from="7515100#7" to="-7525884"/>
    <trip id="truck452" type="truck_truck" depart="744.47" departLane="best" from="7525685#0" to="7526904#0"/>
    <trip id="truck453" type="truck_truck" depart="746.11" departLane="best" from="7523397#1" to="7514177"/>
    <trip id="truck454" type="truck_truck" depart="747.76" departLane="best" from="7514996#1" to="-256766540"/>
    <trip id="truck456" type="truck_truck" depart="751.05" departLane="best" from="130303188#2" to="-7523127#1"/>
    <trip id="truck457" type="truck_truck" depart="752.70" departLane="best" departSpeed="max" from="272689006#0" to="-138999778#1"/>
    <trip id="truck460" type="truck_truck" depart="757.64" departLane="best" departSpeed="max" from="7514188#0" to="-276637029"/>
    <trip id="truck461" type="truck_truck" depart="759.29" departLane="best" from="325822855" to="7523024#1"/>
    <trip id="truck464" type="truck_truck" depart="764.23" departLane="best" from="-7523041" to="7514188#1"/>
    <trip id="truck467" type="truck_truck" depart="769.17" departLane="best" from="48233018#2" to="131301772#3"/>
    <trip id="truck468" type="truck_truck" depart="770.82" departLane="best" from="7523117" to="-7514189#0"/>
    <trip id="truck469" type="truck_truck" depart="772.47" departLane="best" from="7515419" to="503259449"/>
    <trip id="truck474" type="truck_truck" depart="780.70" departLane="best" from="-148106208#1" to="7523120#0"/>
    <trip id="truck475" type="truck_truck" depart="782.35" departLane="best" departSpeed="max" from="7522817#0" to="509256252#1"/>
    <trip id="truck476" type="truck_truck" depart="784.00" departLane="best" from="7525597#0" to="7523382#3"/>
    <trip id="truck480" type="truck_truck" depart="790.58" departLane="best" from="7522846#1" to="466067463"/>
    <trip id="truck483" type="truck_truck" depart="795.53" departLane="best" from="7514098#0" to="7525627#2"/>
    <trip id="truck487" type="truck_truck" depart="802.11" departLane="best" from="405782628#1" to="19836336#1"/>
    <trip id="truck493" type="truck_truck" depart="812.00" departLane="best" from="7514028#1" to="7523175#0"/>
    <trip id="truck496" type="truck_truck" depart="816.94" departLane="best" from="48247743#8" to="7526708"/>
    <trip id="truck504" type="truck_truck" depart="830.11" departLane="best" departSpeed="max" from="-59293222" to="7525805"/>
    <trip id="truck514" type="truck_truck" depart="846.58" departLane="best" from="137688693" to="452627652#2"/>
    <trip id="truck517" type="truck_truck" depart="851.52" departLane="best" from="-510807260#0" to="-71166879"/>
    <trip id="truck526" type="truck_truck" depart="866.35" departLane="best" from="7525588#2" to="7523069#0"/>
    <trip id="truck535" type="truck_truck" depart="881.17" departLane="best" from="7525593#1" to="7523235"/>
    <trip id="truck539" type="truck_truck" depart="887.76" departLane="best" from="7523074" to="48377516#0"/>
    <trip id="truck540" type="truck_truck" depart="889.41" departLane="best" from="53856564" to="192310280#1"/>
    <trip id="truck545" type="truck_truck" depart="897.64" departLane="best" departSpeed="max" from="-7526868" to="7515100#7"/>
    <trip id="truck548" type="truck_truck" depart="902.58" departLane="best" from="7525926#1" to="-7522871#1"/>
    <trip id="truck556" type="truck_truck" depart="915.76" departLane="best" from="-7522874#0" to="147998964"/>
    <trip id="truck557" type="truck_truck" depart="917.41" departLane="best" from="7525590#0" to="7522871#0"/>
    <trip id="truck559" type="truck_truck" depart="920.70" departLane="best" from="-626482538" to="129929614#0"/>
    <trip id="truck560" type="truck_truck" depart="922.35" departLane="best" from="7525601" to="61912072#1"/>
    <trip id="truck563" type="truck_truck" depart="927.29" departLane="best" from="465277872#3" to="7523361#10"/>
    <trip id="truck567" type="truck_truck" depart="933.88" departLane="best" from="-7526755" to="-7522846#1"/>
    <trip id="truck569" type="truck_truck" depart="937.17" departLane="best" from="-7526742" to="465277872#6"/>
    <trip id="truck571" type="truck_truck" depart="940.47" departLane="best" departSpeed="max" from="7526920" to="-494143965#4"/>
    <trip id="truck573" type="truck_truck" depart="943.76" departLane="best" from="7527001#1" to="643106963"/>
    <trip id="truck577" type="truck_truck" depart="950.35" departLane="best" from="7523281" to="292763618#2"/>
    <trip id="truck578" type="truck_truck" depart="951.99" departLane="best" from="7523017#4" to="7514996#5"/>
    <trip id="truck579" type="truck_truck" depart="953.64" departLane="best" from="7523198#1" to="7523056"/>
    <trip id="truck582" type="truck_truck" depart="958.58" departLane="best" from="48978148" to="7522869#0"/>
    <trip id="truck596" type="truck_truck" depart="981.64" departLane="best" from="47384352#1" to="7522834"/>
    <trip id="truck601" type="truck_truck" depart="989.88" departLane="best" departSpeed="max" from="-7522940" to="7514115"/>
    <trip id="truck616" type="truck_truck" depart="1014.58" departLane="best" from="7525916#4" to="48377502#0"/>
    <trip id="truck618" type="truck_truck" depart="1017.88" departLane="best" from="7525685#1" to="231865210"/>
    <trip id="truck619" type="truck_truck" depart="1019.52" departLane="best" from="304873645" to="-492717172#0"/>
    <trip id="truck622" type="truck_truck" depart="1024.46" departLane="best" from="7526715#0" to="7515100#0"/>
    <trip id="truck625" type="truck_truck" depart="1029.41" departLane="best" departSpeed="max" from="-292763599" to="643106957#2"/>
    <trip id="truck627" type="truck_truck" depart="1032.70" departLane="best" from="61888287#2" to="7514148#0"/>
    <trip id="truck632" type="truck_truck" depart="1040.94" departLane="best" from="48247744#1" to="7521926#1"/>
    <trip id="truck634" type="truck_truck" depart="1044.23" departLane="best" from="7523231" to="7515100#3"/>
    <trip id="truck635" type="truck_truck" depart="1045.88" departLane="best" departSpeed="max" from="-7523149#2" to="7526886#2"/>
    <trip id="truck637" type="truck_truck" depart="1049.17" departLane="best" from="-48978154#0" to="-7515100#7"/>
    <trip id="truck640" type="truck_truck" depart="1054.11" departLane="best" from="7525908#0" to="7525741#1"/>
    <trip id="truck645" type="truck_truck" depart="1062.35" departLane="best" from="7515137#2" to="7523017#4"/>
    <trip id="truck653" type="truck_truck" depart="1075.52" departLane="best" from="7515441#4" to="165724848"/>
    <trip id="truck654" type="truck_truck" depart="1077.17" departLane="best" from="-534327204#2" to="-488658842#7"/>
    <trip id="truck656" type="truck_truck" depart="1080.46" departLane="best" from="-7525627#2" to="7514112"/>
    <trip id="truck657" type="truck_truck" depart="1082.11" departLane="best" from="181070185#7" to="7523012"/>
    <trip id="truck660" type="truck_truck" depart="1087.05" departLane="best" from="332035666" to="662635797"/>
    <trip id="truck667" type="truck_truck" depart="1098.58" departLane="best" from="52718604#0" to="509256247"/>
    <trip id="truck676" type="truck_truck" depart="1113.41" departLane="best" departSpeed="max" from="7523002#0" to="7523192"/>
    <trip id="truck689" type="truck_truck" depart="1134.82" departLane="best" from="7523043#2" to="177972950#2"/>
    <trip id="truck691" type="truck_truck" depart="1138.11" departLane="best" departSpeed="max" from="148106208#0" to="7523400#0"/>
    <trip id="truck695" type="truck_truck" depart="1144.70" departLane="best" from="666374663#1" to="7523024#0"/>
    <trip id="truck697" type="truck_truck" depart="1147.99" departLane="best" departSpeed="max" from="7515438" to="-276638463"/>
    <trip id="truck698" type="truck_truck" depart="1149.64" departLane="best" from="7526821" to="-7514184#0"/>
    <trip id="truck705" type="truck_truck" depart="1161.17" departLane="best" from="7523198#3" to="7523017#5"/>
    <trip id="truck707" type="truck_truck" depart="1164.46" departLane="best" from="7514053#1" to="-7523227#1"/>
    <trip id="truck712" type="truck_truck" depart="1172.70" departLane="best" from="7515403#3" to="385428679#0"/>
    <trip id="truck714" type="truck_truck" depart="1175.99" departLane="best" from="7526849#2" to="7523381#1"/>
    <trip id="truck717" type="truck_truck" depart="1180.93" departLane="best" from="53885070" to="7526750#0"/>
    <trip id="truck718" type="truck_truck" depart="1182.58" departLane="best" from="7515520" to="-7522817#0"/>
    <trip id="truck720" type="truck_truck" depart="1185.88" departLane="best" from="-7526759" to="7515437"/>
    <trip id="truck721" type="truck_truck" depart="1187.52" departLane="best" from="534327204#4" to="7515100#0"/>
    <trip id="truck722" type="truck_truck" depart="1189.17" departLane="best" from="-488658842#1" to="45662550#2"/>
    <trip id="truck723" type="truck_truck" depart="1190.82" departLane="best" from="7522946" to="-7514037#0"/>
    <trip id="truck725" type="truck_truck" depart="1194.11" departLane="best" from="43634353#2" to="7526756"/>
    <trip id="truck731" type="truck_truck" depart="1203.99" departLane="best" departSpeed="max" from="7525841" to="-7523120#2"/>
    <trip id="truck732" type="truck_truck" depart="1205.64" departLane="best" from="7525980" to="82307164#0"/>
    <trip id="truck738" type="truck_truck" depart="1215.52" departLane="best" from="142153165#0" to="7527004"/>
    <trip id="truck746" type="truck_truck" depart="1228.70" departLane="best" from="-7523175#0" to="-7522823"/>
    <trip id="truck753" type="truck_truck" depart="1240.23" departLane="best" from="429613787" to="510807260#0"/>
    <trip id="truck759" type="truck_truck" depart="1250.11" departLane="best" from="49076529#2" to="59293112#3"/>
    <trip id="truck761" type="truck_truck" depart="1253.40" departLane="best" from="-7526863#0" to="7523142"/>
    <trip id="truck762" type="truck_truck" depart="1255.05" departLane="best" from="7525821" to="-589529358"/>
    <trip id="truck763" type="truck_truck" depart="1256.70" departLane="best" from="48247743#2" to="7522940"/>
    <trip id="truck769" type="truck_truck" depart="1266.58" departLane="best" departSpeed="max" from="-7514041" to="527657594"/>
    <trip id="truck770" type="truck_truck" depart="1268.23" departLane="best" departSpeed="max" from="7523373#0" to="488658842#11"/>
    <trip id="truck780" type="truck_truck" depart="1284.70" departLane="best" from="7523144" to="7526934"/>
    <trip id="truck787" type="truck_truck" depart="1296.23" departLane="best" departSpeed="max" from="534327204#0" to="7523043#3"/>
    <trip id="truck789" type="truck_truck" depart="1299.52" departLane="best" from="-276637014" to="177972950#0"/>
    <trip id="truck792" type="truck_truck" depart="1304.46" departLane="best" from="131301772#0" to="7526763#3"/>
    <trip id="truck795" type="truck_truck" depart="1309.40" departLane="best" from="7523147#0" to="7525881#1"/>
    <trip id="truck797" type="truck_truck" depart="1312.70" departLane="best" from="71190298" to="7522940"/>
    <trip id="truck798" type="truck_truck" depart="1314.35" departLane="best" from="-45340669#0" to="7523089#0"/>
    <trip id="truck804" type="truck_truck" depart="1324.23" departLane="best" from="-7525851#1" to="181070185#10"/>
    <trip id="truck805" type="truck_truck" depart="1325.88" departLane="best" from="-496119718" to="7526844#0"/>
    <trip id="truck806" type="truck_truck" depart="1327.52" departLane="best" from="7525833#2" to="7525972"/>
    <trip id="truck814" type="truck_truck" depart="1340.70" departLane="best" from="7523361#9" to="7525983#0"/>
    <trip id="truck817" type="truck_truck" depart="1345.64" departLane="best" departSpeed="max" from="-7526783" to="-7525593#2"/>
    <trip id="truck826" type="truck_truck" depart="1360.46" departLane="best" from="7526872#1" to="-7514993#1"/>
    <trip id="truck830" type="truck_truck" depart="1367.05" departLane="best" from="315069731#0" to="130209605#1"/>
    <trip id="truck832" type="truck_truck" depart="1370.35" departLane="best" from="49076528#2" to="7525685#4"/>
    <trip id="truck834" type="truck_truck" depart="1373.64" departLane="best" from="45266152#0" to="66483860#1"/>
    <trip id="truck838" type="truck_truck" depart="1380.23" departLane="best" from="-7523001" to="270659695#0"/>
    <trip id="truck845" type="truck_truck" depart="1391.76" departLane="best" from="59109996" to="7515100#9"/>
    <trip id="truck850" type="truck_truck" depart="1399.99" departLane="best" from="-7525927" to="7522955"/>
    <trip id="truck853" type="truck_truck" depart="1404.93" departLane="best" from="7515334" to="7514188#1"/>
    <trip id="truck854" type="truck_truck" depart="1406.58" departLane="best" from="492717172#1" to="503858820#1"/>
    <trip id="truck855" type="truck_truck" depart="1408.23" departLane="best" from="-147059787#5" to="633303660"/>
    <trip id="truck858" type="truck_truck" depart="1413.17" departLane="best" from="7515387#1" to="7523382#3"/>
    <trip id="truck860" type="truck_truck" depart="1416.46" departLane="best" from="-7514123#0" to="-7522886#0"/>
    <trip id="truck862" type="truck_truck" depart="1419.76" departLane="best" departSpeed="max" from="7523390" to="131077046#1"/>
    <trip id="truck863" type="truck_truck" depart="1421.40" departLane="best" from="405782633" to="339182298#1"/>
    <trip id="truck864" type="truck_truck" depart="1423.05" departLane="best" from="432090896" to="666374662"/>
    <trip id="truck866" type="truck_truck" depart="1426.35" departLane="best" departSpeed="max" from="7515441#0" to="7525747#2"/>
    <trip id="truck871" type="truck_truck" depart="1434.58" departLane="best" departSpeed="max" from="-7523096#1" to="509256252#0"/>
    <trip id="truck875" type="truck_truck" depart="1441.17" departLane="best" from="-424896167" to="-7525770#0"/>
    <trip id="truck881" type="truck_truck" depart="1451.05" departLane="best" from="69087945" to="7523136#0"/>