<?xml version="1.0" encoding="UTF-8"?>
<!-- generated on 2019-02-13 14:15:03.360000 by $Id$
  options: 
-->
<routes xmlns:xsi="http://www.w3.org/2001/XMLSchema-instance" xsi:noNamespaceSchemaLocation="http://sumo.dlr.de/xsd/routes_file.xsd">
    <vType id="ped_pedestrian" vClass="pedestrian"/>
    <person id="ped0" depart="0.00" type="ped_pedestrian">
        <walk from="589856130" to="-292763600#0"/>
    </person>
    <person id="ped1" depart="1.05" type="ped_pedestrian">
        <walk from="663028889#1" to="643588989"/>
    </person>
    <person id="ped2" depart="2.10" type="ped_pedestrian">
        <walk from="7525597#1" to="-589049546"/>
    </person>
    <person id="ped3" depart="3.15" type="ped_pedestrian">
        <walk from="449429363" to="-324552146"/>
    </person>
    <person id="ped4" depart="4.19" type="ped_pedestrian">
        <walk from="147059787#3" to="469665113#3"/>
    </person>
    <person id="ped5" depart="5.24" type="ped_pedestrian">
        <walk from="-292763626" to="131301772#0"/>
    </person>
    <person id="ped6" depart="6.29" type="ped_pedestrian">
        <walk from="61888290#4" to="49076528#0"/>
    </person>
    <person id="ped7" depart="7.34" type="ped_pedestrian">
        <walk from="147059794" to="504544276"/>
    </person>
    <person id="ped8" depart="8.39" type="ped_pedestrian">
        <walk from="7515451#5" to="-147193533#0"/>
    </person>
    <person id="ped9" depart="9.44" type="ped_pedestrian">
        <walk from="7515437" to="651826255#29"/>
    </person>
    <person id="ped10" depart="10.49" type="ped_pedestrian">
        <walk from="34436317" to="-7525593#0"/>
    </person>
    <person id="ped11" depart="11.53" type="ped_pedestrian">
        <walk from="7526715#1" to="342746322"/>
    </person>
    <person id="ped12" depart="12.58" type="ped_pedestrian">
        <walk from="-643462481#0" to="-70038587"/>
    </person>
    <person id="ped13" depart="13.63" type="ped_pedestrian">
        <walk from="7523102" to="520348055#3"/>
    </person>
    <person id="ped14" depart="14.68" type="ped_pedestrian">
        <walk from="7515447" to="662900093#1"/>
    </person>
    <person id="ped15" depart="15.73" type="ped_pedestrian">
        <walk from="48534332#3" to="7526863#1"/>
    </person>
    <person id="ped16" depart="16.78" type="ped_pedestrian">
        <walk from="424896173#1" to="491013333"/>
    </person>
    <person id="ped17" depart="17.83" type="ped_pedestrian">
        <walk from="7522966#2" to="531282403#0"/>
    </person>
    <person id="ped18" depart="18.87" type="ped_pedestrian">
        <walk from="7523220#1" to="495636713"/>
    </person>
    <person id="ped19" depart="19.92" type="ped_pedestrian">
        <walk from="147999011" to="276247471"/>
    </person>
    <person id="ped20" depart="20.97" type="ped_pedestrian">
        <walk from="-527972352" to="154747060"/>
    </person>
    <person id="ped21" depart="22.02" type="ped_pedestrian">
        <walk from="-7514073" to="26004096"/>
    </person>
    <person id="ped22" depart="23.07" type="ped_pedestrian">
        <walk from="41669967" to="138999774#0"/>
    </person>
    <person id="ped23" depart="24.12" type="ped_pedestrian">
        <walk from="223500996" to="7525896#2"/>
    </person>
    <person id="ped24" depart="25.17" type="ped_pedestrian">
        <walk from="61851780" to="527972349"/>
    </person>
    <person id="ped25" depart="26.21" type="ped_pedestrian">
        <walk from="-7525968#5" to="662900089#1"/>
    </person>
    <person id="ped26" depart="27.26" type="ped_pedestrian">
        <walk from="-7525803#1" to="426887061#0"/>
    </person>
    <person id="ped27" depart="28.31" type="ped_pedestrian">
        <walk from="7527008" to="59109996"/>
    </person>
    <person id="ped28" depart="29.36" type="ped_pedestrian">
        <walk from="491331259#0" to="651826250#1"/>
    </person>
    <person id="ped29" depart="30.41" type="ped_pedestrian">
        <walk from="7523066#1" to="7514812#0"/>
    </person>
    <person id="ped30" depart="31.46" type="ped_pedestrian">
        <walk from="317515430" to="224160842#4"/>
    </person>
    <person id="ped31" depart="32.51" type="ped_pedestrian">
        <walk from="138999778#1" to="7525925#1"/>
    </person>
    <person id="ped32" depart="33.55" type="ped_pedestrian">
        <walk from="7523361#10" to="315071208#0"/>
    </person>
    <person id="ped33" depart="34.60" type="ped_pedestrian">
        <walk from="635373567#0" to="437986097"/>
    </person>
    <person id="ped34" depart="35.65" type="ped_pedestrian">
        <walk from="7525760#1" to="469218131#1"/>
    </person>
    <person id="ped35" depart="36.70" type="ped_pedestrian">
        <walk from="222668763#0" to="181070185#5"/>
    </person>
    <person id="ped36" depart="37.75" type="ped_pedestrian">
        <walk from="491346862" to="222027431#1"/>
    </person>
    <person id="ped37" depart="38.80" type="ped_pedestrian">
        <walk from="503848908" to="7525641"/>
    </person>
    <person id="ped38" depart="39.85" type="ped_pedestrian">
        <walk from="440206288" to="147059787#6"/>
    </person>
    <person id="ped39" depart="40.89" type="ped_pedestrian">
        <walk from="90908793#12" to="471535039"/>
    </person>
    <person id="ped40" depart="41.94" type="ped_pedestrian">
        <walk from="-628756768" to="-452627652#0"/>
    </person>
    <person id="ped41" depart="42.99" type="ped_pedestrian">
        <walk from="-7515007" to="542911364"/>
    </person>
    <person id="ped42" depart="44.04" type="ped_pedestrian">
        <walk from="7515161#2" to="449429365"/>
    </person>
    <person id="ped43" depart="45.09" type="ped_pedestrian">
        <walk from="-48978154#0" to="429596756#0"/>
    </person>
    <person id="ped44" depart="46.14" type="ped_pedestrian">
        <walk from="88600819#0" to="48247744#0"/>
    </person>
    <person id="ped45" depart="47.19" type="ped_pedestrian">
        <walk from="-186949585#0" to="662745203"/>
    </person>
    <person id="ped46" depart="48.23" type="ped_pedestrian">
        <walk from="651822635" to="485468131#0"/>
    </person>
    <person id="ped47" depart="49.28" type="ped_pedestrian">
        <walk from="223396784#7" to="592174101#2"/>
    </person>
    <person id="ped48" depart="50.33" type="ped_pedestrian">
        <walk from="-7515100#0" to="458055190"/>
    </person>
    <person id="ped49" depart="51.38" type="ped_pedestrian">
        <walk from="469218128#1" to="7526692"/>
    </person>
    <person id="ped50" depart="52.43" type="ped_pedestrian">
        <walk from="7523359#1" to="222027434#0"/>
    </person>
    <person id="ped51" depart="53.48" type="ped_pedestrian">
        <walk from="469539942#0" to="-7526863#3"/>
    </person>
    <person id="ped52" depart="54.53" type="ped_pedestrian">
        <walk from="7525747#1" to="7523316"/>
    </person>
    <person id="ped53" depart="55.57" type="ped_pedestrian">
        <walk from="292763610#0" to="589856127#2"/>
    </person>
    <person id="ped54" depart="56.62" type="ped_pedestrian">
        <walk from="527972347" to="-7523273"/>
    </person>
    <person id="ped55" depart="57.67" type="ped_pedestrian">
        <walk from="7514043#1" to="488658841#0"/>
    </person>
    <person id="ped56" depart="58.72" type="ped_pedestrian">
        <walk from="7514966#1" to="48247752"/>
    </person>
    <person id="ped57" depart="59.77" type="ped_pedestrian">
        <walk from="-108382655#1" to="331453393#1"/>
    </person>
    <person id="ped58" depart="60.82" type="ped_pedestrian">
        <walk from="-272689130#0" to="7525848"/>
    </person>
    <person id="ped59" depart="61.87" type="ped_pedestrian">
        <walk from="7523365" to="7523001"/>
    </person>
    <person id="ped60" depart="62.91" type="ped_pedestrian">
        <walk from="314449717" to="-477449223#3"/>
    </person>
    <person id="ped61" depart="63.96" type="ped_pedestrian">
        <walk from="7523361#6" to="7525942#0"/>
    </person>
    <person id="ped62" depart="65.01" type="ped_pedestrian">
        <walk from="-551275996" to="469218233"/>
    </person>
    <person id="ped63" depart="66.06" type="ped_pedestrian">
        <walk from="-495636715#1" to="7514028#1"/>
    </person>
    <person id="ped64" depart="67.11" type="ped_pedestrian">
        <walk from="7514080#3" to="-7522955"/>
    </person>
    <person id="ped65" depart="68.16" type="ped_pedestrian">
        <walk from="469218159#7" to="49076567#2"/>
    </person>
    <person id="ped66" depart="69.21" type="ped_pedestrian">
        <walk from="222668763#1" to="7523334#1"/>
    </person>
    <person id="ped67" depart="70.25" type="ped_pedestrian">
        <walk from="449433216" to="140759168#1"/>
    </person>
    <person id="ped68" depart="71.30" type="ped_pedestrian">
        <walk from="488658841#0" to="662900096#0"/>
    </person>
    <person id="ped69" depart="72.35" type="ped_pedestrian">
        <walk from="134950467#1" to="315069727#3"/>
    </person>
    <person id="ped70" depart="73.40" type="ped_pedestrian">
        <walk from="88551321" to="61888290#4"/>
    </person>
    <person id="ped71" depart="74.45" type="ped_pedestrian">
        <walk from="459426776" to="477458187#0"/>
    </person>
    <person id="ped72" depart="75.50" type="ped_pedestrian">
        <walk from="342757256" to="504540607"/>
    </person>
    <person id="ped73" depart="76.55" type="ped_pedestrian">
        <walk from="148106221" to="147059793"/>
    </person>
    <person id="ped74" depart="77.59" type="ped_pedestrian">
        <walk from="-499072499#1" to="551275312"/>
    </person>
    <person id="ped75" depart="78.64" type="ped_pedestrian">
        <walk from="148106211" to="7525676#3"/>
    </person>
    <person id="ped76" depart="79.69" type="ped_pedestrian">
        <walk from="7523198#4" to="-499072499#1"/>
    </person>
    <person id="ped77" depart="80.74" type="ped_pedestrian">
        <walk from="162816884" to="643123079"/>
    </person>
    <person id="ped78" depart="81.79" type="ped_pedestrian">
        <walk from="142153168" to="-7523025"/>
    </person>
    <person id="ped79" depart="82.84" type="ped_pedestrian">
        <walk from="7525883#1" to="494136557#0"/>
    </person>
    <person id="ped80" depart="83.89" type="ped_pedestrian">
        <walk from="469218148#7" to="7515023#3"/>
    </person>
    <person id="ped81" depart="84.93" type="ped_pedestrian">
        <walk from="7515450#1" to="129929610#0"/>
    </person>
    <person id="ped82" depart="85.98" type="ped_pedestrian">
        <walk from="-71166879" to="45514399#2"/>
    </person>
    <person id="ped83" depart="87.03" type="ped_pedestrian">
        <walk from="449433218#0" to="469218139#1"/>
    </person>
    <person id="ped84" depart="88.08" type="ped_pedestrian">
        <walk from="662900089#1" to="643577876"/>
    </person>
    <person id="ped85" depart="89.13" type="ped_pedestrian">
        <walk from="440212995" to="34298095"/>
    </person>
    <person id="ped86" depart="90.18" type="ped_pedestrian">
        <walk from="7523220#1" to="184643100"/>
    </person>
    <person id="ped87" depart="91.23" type="ped_pedestrian">
        <walk from="129908459" to="469218120"/>
    </person>
    <person id="ped88" depart="92.28" type="ped_pedestrian">
        <walk from="449429363" to="266940325#0"/>
    </person>
    <person id="ped89" depart="93.32" type="ped_pedestrian">
        <walk from="185437773#0" to="7525804"/>
    </person>
    <person id="ped90" depart="94.37" type="ped_pedestrian">
        <walk from="466068847" to="7523217#0"/>
    </person>
    <person id="ped91" depart="95.42" type="ped_pedestrian">
        <walk from="49076572" to="-458897685#0"/>
    </person>
    <person id="ped92" depart="96.47" type="ped_pedestrian">
        <walk from="93208243" to="7523027#2"/>
    </person>
    <person id="ped93" depart="97.52" type="ped_pedestrian">
        <walk from="7526839#1" to="7525829#1"/>
    </person>
    <person id="ped94" depart="98.57" type="ped_pedestrian">
        <walk from="7523111" to="-7525849"/>
    </person>
    <person id="ped95" depart="99.62" type="ped_pedestrian">
        <walk from="469218229" to="142153165#2"/>
    </person>
    <person id="ped96" depart="100.66" type="ped_pedestrian">
        <walk from="440212987" to="-478595288#0"/>
    </person>
    <person id="ped97" depart="101.71" type="ped_pedestrian">
        <walk from="222668764" to="7515023#0"/>
    </person>
    <person id="ped98" depart="102.76" type="ped_pedestrian">
        <walk from="469218129#2" to="449433215"/>
    </person>
    <person id="ped99" depart="103.81" type="ped_pedestrian">
        <walk from="7526715#1" to="88551322#0"/>
    </person>
    <person id="ped100" depart="104.86" type="ped_pedestrian">
        <walk from="491326222#0" to="662638033"/>
    </person>
    <person id="ped101" depart="105.91" type="ped_pedestrian">
        <walk from="-7523318" to="286563912#1"/>
    </person>
    <person id="ped102" depart="106.96" type="ped_pedestrian">
        <walk from="7526836" to="496460365"/>
    </person>
    <person id="ped103" depart="108.00" type="ped_pedestrian">
        <walk from="48978093" to="68014250#1"/>
    </person>
    <person id="ped104" depart="109.05" type="ped_pedestrian">
        <walk from="-474660721" to="503848907#0"/>
    </person>
    <person id="ped105" depart="110.10" type="ped_pedestrian">
        <walk from="469651304" to="7523136#0"/>
    </person>
    <person id="ped106" depart="111.15" type="ped_pedestrian">
        <walk from="-7525634#0" to="7526750#0"/>
    </person>
    <person id="ped107" depart="112.20" type="ped_pedestrian">
        <walk from="-527975374" to="108382655#0"/>
    </person>
    <person id="ped108" depart="113.25" type="ped_pedestrian">
        <walk from="510270834" to="643588089#3"/>
    </person>
    <person id="ped109" depart="114.30" type="ped_pedestrian">
        <walk from="159868012#2" to="-7515520"/>
    </person>
    <person id="ped110" depart="115.34" type="ped_pedestrian">
        <walk from="7525591" to="181070185#3"/>
    </person>
    <person id="ped111" depart="116.39" type="ped_pedestrian">
        <walk from="510270832" to="53213690#3"/>
    </person>
    <person id="ped112" depart="117.44" type="ped_pedestrian">
        <walk from="448345147" to="503260057#1"/>
    </person>
    <person id="ped113" depart="118.49" type="ped_pedestrian">
        <walk from="480237693" to="7525875#0"/>
    </person>
    <person id="ped114" depart="119.54" type="ped_pedestrian">
        <walk from="138017459#1" to="662598224#4"/>
    </person>
    <person id="ped115" depart="120.59" type="ped_pedestrian">
        <walk from="163417103#0" to="437986098"/>
    </person>
    <person id="ped116" depart="121.64" type="ped_pedestrian">
        <walk from="643466057#1" to="292763618#2"/>
    </person>
    <person id="ped117" depart="122.68" type="ped_pedestrian">
        <walk from="317515431#3" to="70006225#5"/>
    </person>
    <person id="ped118" depart="123.73" type="ped_pedestrian">
        <walk from="-503410617" to="469218130#8"/>
    </person>
    <person id="ped119" depart="124.78" type="ped_pedestrian">
        <walk from="90908793#5" to="88600819#0"/>
    </person>
    <person id="ped120" depart="125.83" type="ped_pedestrian">
        <walk from="-504542521#1" to="140765738"/>
    </person>
    <person id="ped121" depart="126.88" type="ped_pedestrian">
        <walk from="222668764" to="7525862#1"/>
    </person>
    <person id="ped122" depart="127.93" type="ped_pedestrian">
        <walk from="7523380#1" to="7523371#0"/>
    </person>
    <person id="ped123" depart="128.98" type="ped_pedestrian">
        <walk from="408247866#0" to="-7525634#1"/>
    </person>
    <person id="ped124" depart="130.02" type="ped_pedestrian">
        <walk from="528159303#2" to="7526990#1"/>
    </person>
    <person id="ped125" depart="131.07" type="ped_pedestrian">
        <walk from="628758281#0" to="-148106208#0"/>
    </person>
    <person id="ped126" depart="132.12" type="ped_pedestrian">
        <walk from="7522835#1" to="292763617#0"/>
    </person>
    <person id="ped127" depart="133.17" type="ped_pedestrian">
        <walk from="643106966#3" to="7525913#1"/>
    </person>
    <person id="ped128" depart="134.22" type="ped_pedestrian">
        <walk from="-7514812#0" to="491316132"/>
    </person>
    <person id="ped129" depart="135.27" type="ped_pedestrian">
        <walk from="231866825#1" to="52718604#1"/>
    </person>
    <person id="ped130" depart="136.32" type="ped_pedestrian">
        <walk from="662635792" to="136901001"/>
    </person>
    <person id="ped131" depart="137.36" type="ped_pedestrian">
        <walk from="570499016" to="222668758#0"/>
    </person>
    <person id="ped132" depart="138.41" type="ped_pedestrian">
        <walk from="469218252" to="7525676#3"/>
    </person>
    <person id="ped133" depart="139.46" type="ped_pedestrian">
        <walk from="7523093#0" to="-643120086#1"/>
    </person>
    <person id="ped134" depart="140.51" type="ped_pedestrian">
        <walk from="449433218#0" to="255337454#2"/>
    </person>
    <person id="ped135" depart="141.56" type="ped_pedestrian">
        <walk from="-138999778#1" to="7514144#1"/>
    </person>
    <person id="ped136" depart="142.61" type="ped_pedestrian">
        <walk from="588744505#1" to="222027426#1"/>
    </person>
    <person id="ped137" depart="143.66" type="ped_pedestrian">
        <walk from="663124465" to="491013332#1"/>
    </person>
    <person id="ped138" depart="144.70" type="ped_pedestrian">
        <walk from="45329389#2" to="-178055619#0"/>
    </person>
    <person id="ped139" depart="145.75" type="ped_pedestrian">
        <walk from="-510812444" to="7523393#3"/>
    </person>
    <person id="ped140" depart="146.80" type="ped_pedestrian">
        <walk from="7525670#1" to="49076528#3"/>
    </person>
    <person id="ped141" depart="147.85" type="ped_pedestrian">
        <walk from="7523019" to="500067091#0"/>
    </person>
    <person id="ped142" depart="148.90" type="ped_pedestrian">
        <walk from="-7523191#1" to="-7522934"/>
    </person>
    <person id="ped143" depart="149.95" type="ped_pedestrian">
        <walk from="314449720#1" to="7525652"/>
    </person>
    <person id="ped144" depart="151.00" type="ped_pedestrian">
        <walk from="7515247#1" to="7523209#3"/>
    </person>
    <person id="ped145" depart="152.04" type="ped_pedestrian">
        <walk from="7525651#2" to="138999774#4"/>
    </person>
    <person id="ped146" depart="153.09" type="ped_pedestrian">
        <walk from="185437765#1" to="-7514123#3"/>
    </person>
    <person id="ped147" depart="154.14" type="ped_pedestrian">
        <walk from="7514989#1" to="7523397#1"/>
    </person>
    <person id="ped148" depart="155.19" type="ped_pedestrian">
        <walk from="440226776" to="536507106#0"/>
    </person>
    <person id="ped149" depart="156.24" type="ped_pedestrian">
        <walk from="-7523310" to="7525851#3"/>
    </person>
    <person id="ped150" depart="157.29" type="ped_pedestrian">
        <walk from="7523255#0" to="7526878"/>
    </person>
    <person id="ped151" depart="158.34" type="ped_pedestrian">
        <walk from="7515489#1" to="7523382#0"/>
    </person>
    <person id="ped152" depart="159.38" type="ped_pedestrian">
        <walk from="-292763599" to="663028890#1"/>
    </person>
    <person id="ped153" depart="160.43" type="ped_pedestrian">
        <walk from="34104114#1" to="7525853"/>
    </person>
    <person id="ped154" depart="161.48" type="ped_pedestrian">
        <walk from="7515403#1" to="7523243"/>
    </person>
    <person id="ped155" depart="162.53" type="ped_pedestrian">
        <walk from="7515489#1" to="223396784#7"/>
    </person>
    <person id="ped156" depart="163.58" type="ped_pedestrian">
        <walk from="7515096" to="-7514972"/>
    </person>
    <person id="ped157" depart="164.63" type="ped_pedestrian">
        <walk from="7523333#1" to="7523191#1"/>
    </person>
    <person id="ped158" depart="165.68" type="ped_pedestrian">
        <walk from="147059803#0" to="7522834"/>
    </person>
    <person id="ped159" depart="166.72" type="ped_pedestrian">
        <walk from="469218131#8" to="304695898#1"/>
    </person>
    <person id="ped160" depart="167.77" type="ped_pedestrian">
        <walk from="7515243" to="147999008"/>
    </person>
    <person id="ped161" depart="168.82" type="ped_pedestrian">
        <walk from="-27895978#1" to="130206175#2"/>
    </person>
    <person id="ped162" depart="169.87" type="ped_pedestrian">
        <walk from="339182298#0" to="7523254"/>
    </person>
    <person id="ped163" depart="170.92" type="ped_pedestrian">
        <walk from="7526820" to="266940325#3"/>
    </person>
    <person id="ped164" depart="171.97" type="ped_pedestrian">
        <walk from="7526904#0" to="48534332#3"/>
    </person>
    <person id="ped165" depart="173.02" type="ped_pedestrian">
        <walk from="7525914#1" to="-7515364#2"/>
    </person>
    <person id="ped166" depart="174.06" type="ped_pedestrian">
        <walk from="7526849#0" to="-7526863#2"/>
    </person>
    <person id="ped167" depart="175.11" type="ped_pedestrian">
        <walk from="7526763#0" to="223396784#0"/>
    </person>
    <person id="ped168" depart="176.16" type="ped_pedestrian">
        <walk from="-7514993#1" to="458055189"/>
    </person>
    <person id="ped169" depart="177.21" type="ped_pedestrian">
        <walk from="662900085#1" to="315069732#3"/>
    </person>
    <person id="ped170" depart="178.26" type="ped_pedestrian">
        <walk from="527949244#0" to="47367746"/>
    </person>
    <person id="ped171" depart="179.31" type="ped_pedestrian">
        <walk from="433835263" to="495634783"/>
    </person>
    <person id="ped172" depart="180.36" type="ped_pedestrian">
        <walk from="196657716" to="662598201"/>
    </person>
    <person id="ped173" depart="181.40" type="ped_pedestrian">
        <walk from="-129524077" to="7525826"/>
    </person>
    <person id="ped174" depart="182.45" type="ped_pedestrian">
        <walk from="488023666" to="662639444"/>
    </person>
    <person id="ped175" depart="183.50" type="ped_pedestrian">
        <walk from="66483866#0" to="643462481#1"/>
    </person>
    <person id="ped176" depart="184.55" type="ped_pedestrian">
        <walk from="398922251" to="-498071731"/>
    </person>
    <person id="ped177" depart="185.60" type="ped_pedestrian">
        <walk from="643111793" to="34038980"/>
    </person>
    <person id="ped178" depart="186.65" type="ped_pedestrian">
        <walk from="315069733#2" to="7523106#2"/>
    </person>
    <person id="ped179" depart="187.70" type="ped_pedestrian">
        <walk from="662745198#0" to="292763625"/>
    </person>
    <person id="ped180" depart="188.74" type="ped_pedestrian">
        <walk from="314449725#0" to="440226786"/>
    </person>
    <person id="ped181" depart="189.79" type="ped_pedestrian">
        <walk from="440212994" to="281153197#1"/>
    </person>
    <person id="ped182" depart="190.84" type="ped_pedestrian">
        <walk from="-7522898" to="448346335#4"/>
    </person>
    <person id="ped183" depart="191.89" type="ped_pedestrian">
        <walk from="7525916#4" to="643588992"/>
    </person>
    <person id="ped184" depart="192.94" type="ped_pedestrian">
        <walk from="7525665#2" to="530334599"/>
    </person>
    <person id="ped185" depart="193.99" type="ped_pedestrian">
        <walk from="292763643" to="49076559#1"/>
    </person>
    <person id="ped186" depart="195.04" type="ped_pedestrian">
        <walk from="-108382655#0" to="272689130#4"/>
    </person>
    <person id="ped187" depart="196.08" type="ped_pedestrian">
        <walk from="45511926#1" to="498955474"/>
    </person>
    <person id="ped188" depart="197.13" type="ped_pedestrian">
        <walk from="633303663" to="469218137#5"/>
    </person>
    <person id="ped189" depart="198.18" type="ped_pedestrian">
        <walk from="466065274" to="142153165#2"/>
    </person>
    <person id="ped190" depart="199.23" type="ped_pedestrian">
        <walk from="469218151" to="7525657#3"/>
    </person>
    <person id="ped191" depart="200.28" type="ped_pedestrian">
        <walk from="7515247#1" to="-7525895#0"/>
    </person>
    <person id="ped192" depart="201.33" type="ped_pedestrian">
        <walk from="-534327204#4" to="47517201"/>
    </person>
    <person id="ped193" depart="202.38" type="ped_pedestrian">
        <walk from="565124860" to="342746314#0"/>
    </person>
    <person id="ped194" depart="203.42" type="ped_pedestrian">
        <walk from="7522854" to="70006225#0"/>
    </person>
    <person id="ped195" depart="204.47" type="ped_pedestrian">
        <walk from="131301772#1" to="-281153197#1"/>
    </person>
    <person id="ped196" depart="205.52" type="ped_pedestrian">
        <walk from="178155632#3" to="469218159#7"/>
    </person>
    <person id="ped197" depart="206.57" type="ped_pedestrian">
        <walk from="7523120#0" to="-503848908"/>
    </person>
    <person id="ped198" depart="207.62" type="ped_pedestrian">
        <walk from="440226815" to="54512990"/>
    </person>
    <person id="ped199" depart="208.67" type="ped_pedestrian">
        <walk from="130209605#6" to="651826255#20"/>
    </person>
    <person id="ped200" depart="209.72" type="ped_pedestrian">
        <walk from="469218281#24" to="178055619#1"/>
    </person>
    <person id="ped201" depart="210.76" type="ped_pedestrian">
        <walk from="635373567#2" to="-147059796"/>
    </person>
    <person id="ped202" depart="211.81" type="ped_pedestrian">
        <walk from="70004027" to="7514128#0"/>
    </person>
    <person id="ped203" depart="212.86" type="ped_pedestrian">
        <walk from="-7514805#1" to="452627652#0"/>
    </person>
    <person id="ped204" depart="213.91" type="ped_pedestrian">
        <walk from="-7526791" to="7526728"/>
    </person>
    <person id="ped205" depart="214.96" type="ped_pedestrian">
        <walk from="477458187#1" to="-458897682"/>
    </person>
    <person id="ped206" depart="216.01" type="ped_pedestrian">
        <walk from="185437765#0" to="7523107#0"/>
    </person>
    <person id="ped207" depart="217.06" type="ped_pedestrian">
        <walk from="469218129#9" to="7515387#2"/>
    </person>
    <person id="ped208" depart="218.10" type="ped_pedestrian">
        <walk from="643120089" to="7526997"/>
    </person>
    <person id="ped209" depart="219.15" type="ped_pedestrian">
        <walk from="510639055" to="7525970#0"/>
    </person>
    <person id="ped210" depart="220.20" type="ped_pedestrian">
        <walk from="7525594#0" to="528159309#1"/>
    </person>
    <person id="ped211" depart="221.25" type="ped_pedestrian">
        <walk from="662638036" to="469665113#0"/>
    </person>
    <person id="ped212" depart="222.30" type="ped_pedestrian">
        <walk from="7522978#1" to="49076559#1"/>
    </person>
    <person id="ped213" depart="223.35" type="ped_pedestrian">
        <walk from="7525634#1" to="666374663#2"/>
    </person>
    <person id="ped214" depart="224.40" type="ped_pedestrian">
        <walk from="469218159#1" to="222024130"/>
    </person>
    <person id="ped215" depart="225.44" type="ped_pedestrian">
        <walk from="181070185#8" to="589529361#0"/>
    </person>
    <person id="ped216" depart="226.49" type="ped_pedestrian">
        <walk from="7514080#3" to="478350874#1"/>
    </person>
    <person id="ped217" depart="227.54" type="ped_pedestrian">
        <walk from="542911361" to="232277372#0"/>
    </person>
    <person id="ped218" depart="228.59" type="ped_pedestrian">
        <walk from="231865209" to="325773886#0"/>
    </person>
    <person id="ped219" depart="229.64" type="ped_pedestrian">
        <walk from="488658842#11" to="-7523090#1"/>
    </person>
    <person id="ped220" depart="230.69" type="ped_pedestrian">
        <walk from="154747046" to="651826255#1"/>
    </person>
    <person id="ped221" depart="231.74" type="ped_pedestrian">
        <walk from="662461169#1" to="-48978159#2"/>
    </person>
    <person id="ped222" depart="232.78" type="ped_pedestrian">
        <walk from="440226782" to="48978135"/>
    </person>
    <person id="ped223" depart="233.83" type="ped_pedestrian">
        <walk from="443027727#1" to="138018629#13"/>
    </person>
    <person id="ped224" depart="234.88" type="ped_pedestrian">
        <walk from="448346335#2" to="7525672"/>
    </person>
    <person id="ped225" depart="235.93" type="ped_pedestrian">
        <walk from="503848906" to="651826255#17"/>
    </person>
    <person id="ped226" depart="236.98" type="ped_pedestrian">
        <walk from="7523163" to="7514080#2"/>
    </person>
    <person id="ped227" depart="238.03" type="ped_pedestrian">
        <walk from="429596565#1" to="-147059801#0"/>
    </person>
    <person id="ped228" depart="239.08" type="ped_pedestrian">
        <walk from="386750312#0" to="70037849"/>
    </person>
    <person id="ped229" depart="240.12" type="ped_pedestrian">
        <walk from="7523140#0" to="7526690"/>
    </person>
    <person id="ped230" depart="241.17" type="ped_pedestrian">
        <walk from="447027632#1" to="669325425"/>
    </person>
    <person id="ped231" depart="242.22" type="ped_pedestrian">
        <walk from="49076529#2" to="520348054#5"/>
    </person>
    <person id="ped232" depart="243.27" type="ped_pedestrian">
        <walk from="147059794" to="147059788#1"/>
    </person>
    <person id="ped233" depart="244.32" type="ped_pedestrian">
        <walk from="458897675" to="-317517360"/>
    </person>
    <person id="ped234" depart="245.37" type="ped_pedestrian">
        <walk from="342746319" to="644523266"/>
    </person>
    <person id="ped235" depart="246.42" type="ped_pedestrian">
        <walk from="440213003" to="-7525828"/>
    </person>
    <person id="ped236" depart="247.46" type="ped_pedestrian">