<?xml version="1.0" encoding="UTF-8"?>

<!-- generated on 02/13/19 14:15:04 by Eclipse SUMO duarouter Version v1_1_0+0666-d03de0290d
<configuration xmlns:xsi="http://www.w3.org/2001/XMLSchema-instance" xsi:noNamespaceSchemaLocation="http://sumo.dlr.de/xsd/duarouterConfiguration.xsd">

    <input>
        <net-file value="D:\Wang\sumo_git\tools\2019-02-13-14-13-18\osm.net.xml"/>
        <route-files value="D:\Wang\sumo_git\tools\2019-02-13-14-13-18\osm.pedestrian.trips.xml"/>
    </input>

    <output>
        <output-file value="D:\Wang\sumo_git\tools\2019-02-13-14-13-18\osm.pedestrian.rou.xml"/>
        <alternatives-output value="D:\Wang\sumo_git\tools\2019-02-13-14-13-18\osm.pedestrian.rou.alt.xml"/>
    </output>

    <time>
        <begin value="0"/>
        <end value="3600.0"/>
    </time>

    <report>
        <no-warnings value="true"/>
        <ignore-errors value="true"/>
        <no-step-log value="true"/>
    </report>

</configuration>
-->

<routes xmlns:xsi="http://www.w3.org/2001/XMLSchema-instance" xsi:noNamespaceSchemaLocation="http://sumo.dlr.de/xsd/routes_file.xsd">
    <vType id="ped_pedestrian" vClass="pedestrian"/>
    <person id="ped0" type="ped_pedestrian" depart="0.00">
        <walk edges="589856130 28008426 -7514129#1 131077037#3 131077037#2 131077037#1 131077037#0 131077049#1 -147998980 498957011#1 498957011#0 492717168#5 492717168#4 492717168#3 492717168#2 492717168#1 492717168#0 -492717172#1 138999774#5 138999774#4 -138999771#1 -643462481#0 -643462481#1 -643462481#2 643120068 643111791 339181214 339181215 275712571 389861781#1 511305979 147059789#1 147059789#0 -147059787#0 -70030621#4 458055180 -70030621#1 -70030621#0 7515060#0 7515060#1 7515060#2 88551322#1 88551321 -7514972 -662635797 7514979 7514957#0 7514957#1 7515067#1 7515067#0 -7514812#0 -7514812#1 7514993#0 7514993#1 7514993#2 7522805#5 662900097#1 529253306#0 7525933#4 7525933#3 7525784#0 7525784#1 7525671 662900082#2 405782637 304855331 138017459#2 138017469#2 300920537#2 140759206 140759209 7522922#1 7522922#2 491452678#0 491452678#1 7523111 7523102 7523263#1 424896166 7523175#0 7523175#1 -494143965#5 448388212#1 382875785 -292763600#1 -292763600#0"/>
    </person>
    <person id="ped1" type="ped_pedestrian" depart="1.05">
        <walk edges="663028889#1 542908683#0 542908542#0 542908543 7514812#0 7514812#1 7514993#0 7514993#1 7514993#2 7522805#5 662900097#1 529253306#0 7525933#4 7525933#3 7525784#0 7525784#1 7525671 662900082#2 405782637 304855331 138017459#2 138017469#2 300920537#2 140759206 140759209 7522922#1 7522922#2 491452678#0 491452678#1 7523111 7523102 7523090#0 7523090#1 7523090#2 7523090#3 -317517360 -7523121#2 -7523121#3 -7523121#5 -465277872#1 -465277872#2 465277872#3 7523395#0 7523395#1 662598195#1 53106697#2 53106697#3 465277873#2 465277873#0 7525639 7525763#0 511733687 304695900 178155632#0 286563912#1 286563910#0 304695899 304695898#0 7522835#1 7522819 7522944 7523050#0 7523050#1 -7522983 7523051 7522849 510808585 643588089#12 643588089#11 643588089#10 643588089#9 643588089#8 643588089#7 643588089#6 643588089#5 643588089#4 643588089#3 643588089#2 643588089#1 643588989"/>
    </person>
    <person id="ped2" type="ped_pedestrian" depart="2.10">
        <walk edges="7525597#1 7525597#0 7525764#0 81205050#0 34104114#0 433914495 592174101#0 592174101#1 592174101#2 592174101#3 469218135#0 469218148#4 469218136#0 469218136#1 469218136#2 469218153#4 469218137#0 469218137#1 469218137#2 469218159#4 469218131#0 469218131#1 469218131#2 469218164#4 469218130#0 469218130#1 469218130#2 469218170#4 469218129#4 469218129#5 469218129#6 469218175#4 469218126#4 469218126#5 469218126#6 469218182#2 469218134#1 469218119#1 469218121#1 45399268#1 45399268#2 342096580#2 342096580#1 47367743#3 68014257#3 68014257#4 655043418#1 655043418#2 655043418#3 27958746#1 437735565 437735737 -7525851#3 7525851#2 7525851#1 7525685#5 7525685#4 7525685#3 662859075#1 7525657#4 7525657#3 7525607#3 -7525676#3 140759188 140759202 140759198 138017459#1 304855331 405782637 662900082#2 7525671 7525784#1 7525784#0 7525933#3 7525933#4 529253306#0 662900097#1 7522805#6 45371270 60063759#0 60063759#2 130303167#0 130303167#1 315069733#2 315069733#3 315069732#0 315069732#1 662942482#1 666374664#0 315069727#5 315069727#4 315069727#3 -477461460#0 477461460#1 -589049546"/>
    </person>
    <person id="ped3" type="ped_pedestrian" depart="3.15">
        <walk edges="449429363 449433223 7523057#2 7523057#1 7523140#0 7523144 292763621 534327204#4 534327204#3 534327204#2 534327204#0 7523183 -7523100#1 -7523100#0 231866825#1 231866825#0 -300564405#1 41669969#1 41669969#0 7523227#1 7523227#0 7523242#0 7523242#1 7523242#2 -495636715#1 342124684 7523307 7523316 7523192 7522839#0 70037937 231865209 231865210 -7514028#1 -7514028#0 7514098#3 161788045 626482531 161788047#0 -324552146"/>
    </person>
    <person id="ped4" type="ped_pedestrian" depart="4.19">
        <walk edges="147059787#3 147059787#4 147059787#5 147059787#6 70567009#1 70567009#2 48534332#0 48534332#1 7514968#2 45342303#0 7514949#0 7514949#1 181070185#4 45266143#1 7525744 7525666 7525940 7525913#1 7525913#0 7525902 7525916#4 7525916#3 7525916#2 7525916#1 429596625 429596565#4 429596565#5 429596756#0 429596756#1 342096580#0 342096580#1 342096580#2 45399268#2 458054329 462418636#1 469665115#1 469665113#3"/>
    </person>
    <person id="ped7" type="ped_pedestrian" depart="7.34">
        <walk edges="147059794 147059802 147059797#1 275712571 339181215 339181214 643111791 404487678 643120072 643120066 643120075 643120089 643120080 643120088 643106956#0 643106957#1 643106957#0 -504542521#0 -504542521#1 504538924 420015432#1 504540600 504544276"/>
    </person>
    <person id="ped8" type="ped_pedestrian" depart="8.39">
        <walk edges="7515451#5 7515451#6 48377514#0 48377514#1 48377514#3 53213690#0 53213690#2 53213690#3 66676468#0 628758281#1 47976307#0 7515479#0 130206128#1 130206175#0 130206175#2 -147193533#0"/>
    </person>
    <person id="ped9" type="ped_pedestrian" depart="9.44">
        <walk edges="7515437 129929614#1 129929614#0 7515447 338856485#3 338856485#4 538581307 7515364#0 7515208#2 49077205#0 49077205#1 7526763#0 49076528#0 403090782 49076545#2 49076548 7526952 7526992 7525591 433835254 7525590#1 7525590#0 7525859#1 7525859#0 7525826 60062721 47367746 60062720#1 60062720#2 655043418#1 7525969#0 7525914#1 474660720#3 651826251#8 651826251#7 651826251#6 651826251#5 651826249#11 651826255#29"/>
    </person>
    <person id="ped10" type="ped_pedestrian" depart="10.49">
        <walk edges="34436317 70002163 7525803#1 -633303663 -7525908#0 -7525908#1 588744505#1 592174101#1 592174101#0 433914495 34104114#0 34104114#1 -7525593#0"/>
    </person>
    <person id="ped11" type="ped_pedestrian" depart="11.53">
        <walk edges="7526715#1 7526958#0 7526958#1 49076571#0 142840567 49076548 7526714 7526821 7526802#1 466065274 7525761#0 7525761#1 7525761#2 7525687#0 7525815 7525779 7525811 45266143#1 181070185#4 7514949#1 397497469#0 397497469#1 45275621#0 469651302 469651304 458897666 458897690#1 7515489#1 408247865#0 48534332#3 7514996#5 -281153197#0 281153197#1 342746324 342746327 342746326 342746322"/>
    </person>
    <person id="ped12" type="ped_pedestrian" depart="12.58">
        <walk edges="-643462481#0 -643462481#1 -643462481#2 643120068 643111791 339181214 339181215 275712571 389861781#1 511305979 147059789#1 147059789#0 -147059787#0 -70030621#4 458055180 -70030621#1 -70030621#0 7515060#0 7515060#1 7515060#2 88551322#1 88551321 -7514972 -662635797 7514979 7514957#0 7514957#1 7515067#1 7515067#0 7514808#0 -7515100#11 -7515100#12 185437765#2 185437765#1 185437765#0 7514080#3 315069732#0 315069732#1 662942482#1 666374664#2 315071208#0 315071208#1 662942476#1 662942477#1 662942481 662942474 70037849 185437773#0 -527959527 7523214 52940133#5 52940133#4 52940133#3 52940133#2 325773893#1 325773893#0 -7514029 325822855 -70038587"/>
    </person>
    <person id="ped13" type="ped_pedestrian" depart="13.63">
        <walk edges="7523102 7523090#0 7523090#1 -7523090#2 -7523090#3 7525747#4 7525747#3 7525747#2 662598213#2 662598213#1 662598210#1 662598210#0 662598215#0 662598215#1 662598215#2 662598215#3 7525959#0 405782632 405782633 474651518#1 474651518#0 -474651517 142153201 60062720#3 68014257#4 68014257#3 47367743#3 342096580#1 342096580#2 45399268#2 45399268#1 469218121#1 469218119#1 469218134#1 469218182#2 469218126#6 469218126#5 469218126#4 469218175#4 469218129#6 469218129#5 469218129#4 469218170#4 469218130#2 469218130#1 469218130#0 469218164#4 469218131#2 469218131#1 469218131#0 469218159#4 469218137#2 520348055#3"/>
    </person>
    <person id="ped14" type="ped_pedestrian" depart="14.68">
        <walk edges="7515447 7515450#0 7515450#1 7515450#2 7515450#4 7515450#5 48978152 66164465 66164435 48978154#1 48978148 509256251#1 397497464#0 397497464#1 397497464#2 397497464#3 397497464#4 397497464#5 397497469#0 397497469#1 45275621#0 469651302 469651304 458897666 458897690#1 7515489#1 68014250#0 68014250#1 68014250#2 68014250#3 7515060#0 7515060#1 7515060#2 88551322#1 88551321 -7514972 -662635797 7514979 7514957#0 7514957#1 7515067#1 7515067#0 -7514812#0 -7514812#1 7514993#0 7514993#1 7514993#2 7522805#5 662900097#1 662900096#1 662900096#0 662900093#1"/>
    </person>
    <person id="ped15" type="ped_pedestrian" depart="15.73">
        <walk edges="48534332#3 408247865#0 7515489#1 458897690#1 458897666 469651304 469651302 45275621#0 397497469#1 397497469#0 7514949#1 181070185#4 45266143#1 7525811 7525779 7525815 7525687#0 7525761#2 7525761#1 7525761#0 466065274 7526802#1 7526821 7526714 49076548 142840567 49076571#0 7527031 130188760#0 130188760#1 130188765 7526858#1 7526865 7526850 -7526863#3 -7526863#2 7526863#0 7526863#1"/>
    </person>
    <person id="ped16" type="ped_pedestrian" depart="16.78">
        <walk edges="424896173#1 424896172#1 424896165 534327073 7523279#1 7523279#0 -292763621 -7523144 -7523140#0 449433218#0 449433218#1 491346858#1 491346864#1 491346864#0 449429368 449433220#1 449433220#0 449433221 491013332#0 491013333"/>
    </person>
    <person id="ped18" type="ped_pedestrian" depart="18.87">
        <walk edges="7523220#1 -7523222#0 496460364 162816810#0 134950467#1 635373567#8 635373567#7 635373567#6 186949584#3 437802437 -342124684 7523307 7523316 7523198#4 7523198#3 7523198#1 495636713"/>
    </person>
    <person id="ped19" type="ped_pedestrian" depart="19.92">
        <walk edges="147999011 459426776 131077037#2 131077037#1 131077037#0 131077049#1 -147998980 498957011#1 498957011#0 492717168#5 492717168#4 492717168#3 492717168#2 492717168#1 492717168#0 492717172#1 492717172#0 130206174#2 130206174#1 504630479#0 7515167#1 504630483 504630484 536507106#5 7515479#0 47976307#0 628758281#1 66676468#0 53213690#3 53213690#2 53213690#0 48377514#3 -275218657#1 -275218657#0 51166343 276247471"/>
    </person>
    <person id="ped21" type="ped_pedestrian" depart="22.02">
        <walk edges="-7514073 -626482534 7523209#4 7523214 -527959527 185437773#0 70037849 662942474 662942481 662942477#1 662942476#1 315071208#1 315071208#0 666374664#2 662942482#1 315069732#1 315069732#0 7514080#3 185437765#0 185437765#1 185437765#2 7515010#0 7515010#1 7514993#0 26004096"/>
    </person>
    <person id="ped22" type="ped_pedestrian" depart="23.07">
        <walk edges="41669967 45671551 7523290#3 7523290#2 7523290#1 165724846#0 177857140 7522915#0 7522915#1 662900085#1 662900086 7523405#4 662900083#1 662900082#1 662900082#2 7525671 7525784#1 7525784#0 7525933#3 7525933#4 529253306#0 662900097#1 7522805#5 7514993#2 7514993#1 7514993#0 -7514812#1 -7514812#0 7515067#0 7515067#1 7514957#1 7514957#0 7514979 -662635797 -7514972 88551321 88551322#1 7515060#2 7515060#1 7515060#0 -70030621#0 -70030621#1 458055180 -70030621#4 -147059787#0 147059789#0 147059789#1 511305979 389861781#1 275712571 339181215 339181214 643111791 643120068 -643462481#2 -643462481#1 -643462481#0 -138999771#1 138999774#0"/>
    </person>
    <person id="ped23" type="ped_pedestrian" depart="24.12">
        <walk edges="223500996 7525613#1 7525902 7525916#4 7525916#3 7525916#2 7525916#1 429596625 429596565#4 429596565#5 429596756#0 429596756#1 342096580#0 342096580#1 342096580#2 45399268#2 45399268#1 469218121#1 469218119#1 469218134#1 469218182#2 469218126#6 469218126#5 469218126#4 469218175#4 469218129#6 469218129#5 469218129#4 469218170#4 469218130#2 469218130#1 469218130#0 469218164#4 469218131#2 469218131#1 469218131#0 469218159#4 469218137#2 469218137#1 469218137#0 469218153#4 469218136#2 469218136#1 469218136#0 469218148#4 469218135#0 592174101#3 592174101#2 588744505#1 -7525908#1 -7525908#0 -633303663 -466091066 314449721#0 7525981 7525896#2"/>
    </person>
    <person id="ped25" type="ped_pedestrian" depart="26.21">
        <walk edges="-7525968#5 7525968#6 -7523102 -7523111 -491452678#1 -491452678#0 7522922#2 7522922#1 7522922#0 45511747 138017461#0 662900085#0 662900085#1 662900086 662900089#1"/>
    </person>
    <person id="ped26" type="ped_pedestrian" depart="27.26">
        <walk edges="-7525803#1 -466091066 314449721#0 7525981 7525970#2 7525970#1 7525970#0 314449724 314449720#1 314449720#0 7525975#3 7525975#2 7525975#0 7525948#2 7525948#1 7525948#0 53106697#3 53106697#2 662598195#1 7523395#1 7523395#0 465277872#3 465277872#2 465277872#0 7523121#5 7523121#3 146720492 -7523120#0 -7523163 -292763621 -534327204#4 -534327204#3 -534327204#2 -534327204#0 7523183 -7523100#1 -7523100#0 231866825#1 231866825#0 -300564405#1 41669969#1 41669969#0 7523227#1 7523227#0 7523242#0 7523242#1 7523242#2 -495636715#1 342124684 7523307 7523316 7523198#4 7523198#3 7523198#1 7523198#0 104486314 185437773#0 70037849 662942474 662942481 662942477#1 662942476#1 315071208#1 315071208#0 666374664#2 662942482#1 315069732#2 315069732#3 315069728 315069731#0 426887061#0"/>
    </person>
    <person id="ped27" type="ped_pedestrian" depart="28.31">
        <walk edges="7527008 7526953#0 -338856477#3 338856477#4 7526808 7526739#0 7526739#1 88600820 62572647 7527064#1 7526958#1 7526958#0 7526947#1 59109996"/>
    </person>
    <person id="ped28" type="ped_pedestrian" depart="29.36">
        <walk edges="491331259#0 491331259#1 37773670 511823556 511823557#0 511823557#1 325773886#1 325773886#3 325773891#0 61913620 495632748 325773893#0 325773893#1 52940133#2 52940133#3 52940133#4 52940133#5 7523214 527959527 104486314 7523198#0 7523198#1 7523198#3 7523198#4 7523316 7523307 342124684 -495636715#1 7523242#2 7523242#1 7523242#0 -7523227#0 -7523227#1 7523228 382872712#0 382872712#1 424896162 382872708#1 382872708#0 424896173#1 424896172#1 166475175 -7523096#1 -7523096#0 7523283#0 7523283#1 7523121#0 7523121#1 -317517360 7523090#4 -7525747#3 -7525747#2 662598213#2 662598213#1 662598210#1 662598210#0 662598215#0 662598215#1 662598215#2 662598215#3 7525959#0 405782632 405782633 474651518#1 474651518#0 7525969#1 7525969#0 7525914#1 474660720#3 651826251#9 651826251#0 651826251#1 651826250#0 651826250#1"/>
    </person>
    <person id="ped30" type="ped_pedestrian" depart="31.46">
        <walk edges="317515430 147059793 492939488 511304010#0 147059797#1 275712571 339181215 339181214 643111791 404487678 643120072 643120066 643120075 643120089 643120080 643120088 643106956#0 643106957#1 643106957#0 -504542521#0 -504542521#1 504538924 504538923 420015431 420015433#0 420015433#1 420015433#2 420015433#3 420015433#4 420015429 420015428 420011476#2 7515409 69087945 48978159#1 509256251#0 509256252#3 509256252#1 509256252#0 224160842#4"/>
    </person>
    <person id="ped31" type="ped_pedestrian" depart="32.51">
        <walk edges="138999778#1 138999778#0 530963101#0 530963101#1 511304010#0 511304010#1 511304011 511305979 147059789#1 147059789#0 -147059787#1 -147059787#2 -147059787#3 -147059787#4 -147059787#5 147059787#6 70567009#1 70567009#2 48534332#0 48534332#1 7514968#2 45342303#0 7514949#0 7514949#1 181070185#4 45266143#1 7525625 420030107 34298095 7525942#2 7525942#3 7525925#0 7525925#1"/>
    </person>
    <person id="ped32" type="ped_pedestrian" depart="33.55">
        <walk edges="7523361#10 7523092 7523093#1 7523093#0 7523113 144710456 7523158 -300564405#3 -300564405#2 41669969#1 41669969#0 7523227#1 7523227#0 7523242#0 7523242#1 7523242#2 -495636715#1 342124684 7523307 7523316 7523198#4 7523198#3 7523198#1 7523198#0 104486314 185437773#0 70037849 662942474 662942481 662942477#1 662942476#1 315071208#1 315071208#0"/>
    </person>
    <person id="ped33" type="ped_pedestrian" depart="34.60">
        <walk edges="635373567#0 -437765934#0 -437765934#1 -437765934#2 -437765934#3 437986097"/>
    </person>
    <person id="ped34" type="ped_pedestrian" depart="35.65">
        <walk edges="7525760#1 242366590 263977110 196657716 45399268#0 469218121#1 469218119#1 469218134#1 469218182#2 469218126#6 469218126#5 469218126#4 469218175#4 469218129#6 469218129#5 469218129#4 469218170#4 469218130#2 469218130#1 469218130#0 469218164#4 469218131#2 469218131#1"/>
    </person>
    <person id="ped35" type="ped_pedestrian" depart="36.70">
        <walk edges="222668763#0 7526849#0 7525601 7525764#3 -510812444 592174102 592174101#0 592174101#1 592174101#2 592174101#3 469218135#0 469218148#4 469218136#0 469218136#1 469218136#2 469218153#4 469218137#0 469218137#1 469218137#2 469218159#4 469218131#0 469218131#1 469218131#2 469218164#4 469218130#0 469218130#1 469218130#2 469218170#4 469218129#4 469218129#5 469218129#6 469218175#4 469218126#4 469218126#5 469218126#6 469218182#2 469218134#1 469218119#1 469218121#1 45399268#1 45399268#2 342096580#2 342096580#1 342096580#0 429596756#1 429596756#0 429596565#5 429596565#4 429596625 7525916#1 7525916#2 7525916#3 7525916#4 7525902 7525913#0 7525913#1 7525940 7525666 7525744 45266143#1 181070185#5"/>
    </person>
    <person id="ped36" type="ped_pedestrian" depart="37.75">
        <walk edges="491346862 491346858#3 491346858#2 491346864#2 449429367 449433216 7523057#2 7523057#3 7522961#0 7522961#1 7522962#1 7523121#5 465277872#0 465277872#2 465277872#3 7523395#0 7523395#1 662598195#1 53106697#2 53106697#3 7525948#0 7525948#1 7525948#2 7525975#0 7525975#2 662598221#1 314449728#1 7525634#1 7525634#0 7525760#0 7525760#1 242366590 263977110 196657716 45399268#0 469218121#2 469665139 222027412#2 222027422 222027431#1"/>
    </person>
    <person id="ped37" type="ped_pedestrian" depart="38.80">
        <walk edges="503848908 -7522852 -7522848 -7523051 -7522983 7523050#1 7523050#0 7522944 7522819 7522835#1 304695898#0 304695899 286563910#0 286563912#1 178155632#0 304695900 511733687 7525763#0 7525641"/>
    </person>
    <person id="ped38" type="ped_pedestrian" depart="39.85">
        <walk edges="440206288 440206284 440226785 440226784 440226810 440226777 440226799 440226783 440226778 440226794 440226806 440226817 440206273 440206276 440202540 437765931#3 -495636715#1 342124684 7523307 7523316 7523198#4 7523198#3 7523198#1 7523198#0 104486314 185437773#0 70037849 662942474 662942481 662942477#1 662942476#1 315071208#1 315071208#0 666374664#2 662942482#1 315069732#1 315069732#0 7514080#3 185437765#0 185437765#1 185437765#2 -7515100#12 -7515100#11 7514808#0 7515067#0 7515067#1 7514957#1 7514957#0 7514979 -662635797 -7514972 88551321 88551322#1 7515060#2 7515060#1 7515060#0 -70030621#0 -70030621#1 458055180 -70030621#4 -147059787#0 -147059787#1 -147059787#2 -147059787#3 -147059787#4 -147059787#5 147059787#6"/>
    </person>
    <person id="ped40" type="ped_pedestrian" depart="41.94">
        <walk edges="-628756768 45741959#2 45741959#0 45514399#3 60228899#0 536507106#5 504630484 504630483 7515167#1 504630479#0 130206174#1 130206174#2 -492717172#0 138999774#5 138999774#4 504630482#0 7515161#3 48250978#1 48250978#0 -386851202 -589529358 -138999778#0 -452627652#0"/>
    </person>
    <person id="ped41" type="ped_pedestrian" depart="42.99">
        <walk edges="-7515007 7515023#0 7515010#1 7515010#0 185437765#2 185437765#1 185437765#0 7514080#3 315069732#0 315069732#1 662942482#1 666374664#2 315071208#0 315071208#1 315071208#2 -108382655#0 -108382655#1 499072498#0 542911360 542911359 542911364"/>
    </person>
    <person id="ped42" type="ped_pedestrian" depart="44.04">
        <walk edges="7515161#2 48250978#1 48250978#0 144986051 147059798 147059794 147059803#1 147059803#2 93208249 -70030621#4 458055180 -70030621#1 -70030621#0 7515060#0 7515060#1 7515060#2 88551322#1 88551321 -7514972 -662635797 7514979 7514957#0 7514957#1 7515067#1 7515067#0 -7514812#0 -7514812#1 7514993#0 7514993#1 7514993#2 7522805#5 662900097#1 529253306#0 7525933#4 7525933#3 7525784#0 7525784#1 7525671 662900082#2 405782637 304855331 138017459#2 138017469#2 300920537#2 140759206 140759209 7522922#1 7522922#2 491452678#0 491452678#1 7523111 7523102 7523263#1 424896166 7523279#1 7523279#0 -292763621 -7523144 -7523140#0 449433218#0 449433218#1 491346858#1 491346864#1 491346864#0 449429368 449433220#1 449433220#0 449433221 449433217 449429365"/>
    </person>
    <person id="ped43" type="ped_pedestrian" depart="45.09">
        <walk edges="-48978154#0 -48978154#1 -48978148 509256251#1 397497464#0 397497464#1 7515387#0 181070185#8 7514953#0 54512989#3 54512989#0 54512988 7525687#0 7525687#1 7525687#2 7525679 7525919#0 7525919#1 7525940 7525913#1 7525913#0 7525902 7525916#4 7525916#3 7525916#2 7525916#1 429596625 429596565#4 429596565#5 429596756#0"/>
    </person>
    <person id="ped44" type="ped_pedestrian" depart="46.14">
        <walk edges="88600819#0 7526728 7526757 466067035 466067034 7526990#1 49076544#1 403090783 224160843#3 224160843#2 224160843#1 224160843#0 224160847 -7515450#5 224160845 224160842#0 224160842#1 224160842#4 224160842#5 7515415 129929610#1 129929610#0 7515235#1 7515235#0 48247743#5 48247743#6 48247743#7 48247743#8 48247743#9 7515486 7515451#6 48377514#0 48377514#1 48377514#3 53213690#0 393864119#1 7515407#0 7515407#1 7515407#2 7515407#3 -7515403#0 530334599 45741959#2 45741959#0 45514399#2 45514399#0 49076518#2 48247744#1 48247744#0"/>
    </person>
    <person id="ped45" type="ped_pedestrian" depart="47.19">
        <walk edges="-186949585#0 186949585#1 140759168#1 45511926#1 662900082#2 405782637 304855331 138017459#2 138017469#2 300920537#2 140759206 140759209 7522922#1 7522922#2 491452678#0 491452678#1 7523111 7523102 7523090#0 7523090#1 7523090#2 7523090#3 -317517360 -7523121#2 -7523121#3 -7523121#5 -465277872#1 -465277872#2 465277872#3 7523395#0 7523395#1 662598195#1 53106697#2 53106697#3 465277873#2 465277873#0 7525639 7525763#0 511733687 304695900 178155632#1 662745203"/>
    </person>
    <person id="ped46" type="ped_pedestrian" depart="48.23">
        <walk edges="651822635 651822634#0 651822633 491316141#2 161788047#4 161788047#3 161788047#1 161788047#0 626482531 161788045 7514098#3 -7514028#0 -7514028#1 7523209#2 7523209#3 7523209#4 7523214 -527959527 185437773#0 70037849 662942474 662942481 662942477#1 662942476#1 315071208#1 315071208#0 666374664#2 662942482#1 315069732#1 315069732#0 7514080#3 185437765#0 185437765#1 185437765#2 -7515100#12 -7515100#11 7514808#0 7515067#0 7515067#1 7514957#1 7514957#0 7514979 -662635797 -7514972 88551321 88551322#1 7515060#2 7515060#1 7515060#0 -70030621#0 -70030621#1 458055180 -70030621#4 -147059787#0 147059789#0 147059789#1 511305979 511304011 511304010#1 511304010#0 530963101#1 530963101#0 138999778#0 138999778#1 138999778#2 138999778#4 7514805#0 485468120#0 485468131#1 485468131#0"/>
    </person>
    <person id="ped47" type="ped_pedestrian" depart="49.28">
        <walk edges="223396784#7 405782632 405782633 474651518#1 474651518#0 -474651517 142153201 60062720#3 68014257#4 68014257#3 47367743#3 342096580#1 342096580#2 45399268#2 45399268#1 469218121#1 469218119#1 469218134#1 469218182#2 469218126#6 469218126#5 469218126#4 469218175#4 469218129#6 469218129#5 469218129#4 469218170#4 469218130#2 469218130#1 469218130#0 469218164#4 469218131#2 469218131#1 469218131#0 469218159#4 469218137#2 469218137#1 469218137#0 469218153#4 469218136#2 469218136#1 469218136#0 469218148#4 469218135#0 592174101#3 592174101#2"/>
    </person>
    <person id="ped48" type="ped_pedestrian" depart="50.33">
        <walk edges="-7515100#0 663028899#3 662638033 662638032 662638036 130303203 7514998#1 7514998#0 662635792 7514972 88551321 88551322#1 7515060#2 7515060#1 7515060#0 -70030621#0 -70030621#1 458055190"/>
    </person>
    <person id="ped49" type="ped_pedestrian" depart="51.38">
        <walk edges="469218128#1 469218126#9 469218143#4 469218134#0 469218119#1 469218121#1 45399268#1 45399268#2 342096580#2 342096580#1 342096580#0 429596756#1 429596756#0 429596565#5 429596565#4 429596625 7525916#1 7525916#2 7525916#3 7525916#4 7525902 7525913#0 7525913#1 7525917 7525920#0 7525920#1 7525920#2 7525590#0 7525590#1 7525590#2 7527004 7526990#0 7526990#1 142153170#0 88600820 7526739#1 7526739#0 -7526747 -7526693 7526692"/>
    </person>
    <person id="ped50" type="ped_pedestrian" depart="52.43">
        <walk edges="7523359#1 494136561 494136560#1 7523361#10 7523092 7523093#1 7523093#0 7523113 144710456 7523158 138018629#1 7523107#1 -7523276#0 334206010 7523183 -534327204#0 -534327204#2 -534327204#3 -534327204#4 -292763621 -7523163 -7523120#0 146720492 7523121#3 7523121#5 465277872#0 465277872#2 465277872#3 7523395#0 7523395#1 662598195#1 53106697#2 53106697#3 7525948#0 7525948#1 7525948#2 7525975#0 7525975#2 662598221#1 314449728#1 7525634#1 7525634#0 7525760#0 7525760#1 242366590 263977110 196657716 45399268#0 45399268#1 458054329 462418636#1 469665115#1 460770943#1 469665113#0 342092109 222027410 222027434#0"/>
    </person>
    <person id="ped51" type="ped_pedestrian" depart="53.48">
        <walk edges="469539942#0 -90908793#12 -90908793#15 -90908793#16 -90908793#18 469539934#2 -469539934#0 -188394244#0 -389431312#0 -7525908#1 588744505#1 592174101#1 592174101#0 592174102 -510812444 7525764#3 7525601 7526849#0 7526849#1 7526849#2 -7526848 270659689 233918157 7526854#1 7526863#3 -7526863#3"/>
    </person>
    <person id="ped52" type="ped_pedestrian" depart="54.53">
        <walk edges="7525747#1 7525747#2 7525747#3 7525747#4 317517360 -7523121#1 -7523121#0 7523283#1 7523283#0 -7523096#0 -7523096#1 166475175 424896172#1 424896173#1 382872708#0 382872708#1 424896162 382872712#1 382872712#0 7523228 -7523227#1 -7523227#0 7523242#0 7523242#1 7523242#2 -495636715#1 342124684 7523307 7523316"/>
    </person>
    <person id="ped53" type="ped_pedestrian" depart="55.57">
        <walk edges="292763610#0 7525932#2 7525932#1 7525932#0 7525942#3 7525942#2 7525942#1 433901786 7525913#0 7525902 7525916#4 7525916#3 7525916#2 7525916#1 429596625 429596565#4 429596565#5 429596756#0 429596756#1 342096580#0 342096580#1 342096580#2 45399268#2 45399268#1 469218121#1 469218119#1 469218134#1 469218182#2 469218126#6 469218126#5 469218126#4 469218175#4 469218129#6 469218129#5 469218129#4 469218170#4 469218130#2 469218130#1 469218130#0 469218164#4 469218131#2 469218131#1 469218131#0 469218159#4 469218137#2 469218137#1 469218137#0 469218153#4 469218136#2 469218136#1 469218136#0 469218148#4 469218135#0 592174101#3 592174101#2 592174101#1 592174101#0 301446198 266940325#4 266940325#3 266940325#2 266940325#1 266940325#0 589856127#2"/>
    </person>
    <person id="ped54" type="ped_pedestrian" depart="56.62">
        <walk edges="527972347 -527972346#0 492717168#1 492717168#0 -492717172#1 138999774#5 138999774#4 -138999771#1 -643462481#0 -643462481#1 -643462481#2 643120068 643111791 339181214 339181215 275712571 389861781#1 511305979 147059789#1 147059789#0 -147059787#0 -70030621#4 458055180 -70030621#1 -70030621#0 7515060#0 7515060#1 7515060#2 88551322#1 88551321 -7514972 -662635797 7514979 7514957#0 7514957#1 7515067#1 7515067#0 -7514812#0 -7514812#1 7514993#0 7514993#1 7514993#2 7522805#5 662900097#1 529253306#0 7525933#4 7525933#3 7525784#0 7525784#1 7525671 662900082#2 405782637 304855331 138017459#2 138017469#2 300920537#2 140759206 140759209 7522922#1 7522922#2 491452678#0 491452678#1 7523114 166475175 424896165 7523152#1 7523152#0 334206010 448387121 663124465 499246571 7523168 -7523117 -7523273"/>
    </person>
    <person id="ped56" type="ped_pedestrian" depart="58.72">
        <walk edges="7514966#1 181070185#6 181070185#5 397497464#5 7514949#0 45342303#0 -7514968#2 408247866#1 408247863 48244688 48247752"/>
    </person>
    <person id="ped57" type="ped_pedestrian" depart="59.77">
        <walk edges="-108382655#1 -108382655#0 315071208#2 662942476#1 662942477#1 662942481 662942474 70037849 185437773#0 104486314 7523198#0 7523198#1 7523198#3 7523198#4 7523316 7523307 342124684 -495636715#1 7523242#2 7523242#1 7523242#0 7523227#0 7523227#1 41669969#0 41669969#1 -300564405#2 331453393#0 331453393#1"/>
    </person>
    <person id="ped60" type="ped_pedestrian" depart="62.91">
        <walk edges="314449717 7525780#0 266940325#0 266940325#1 266940325#2 266940325#3 266940325#4 301446198 592174101#0 592174101#1 592174101#2 592174101#3 469218135#0 469218148#4 469218136#0 469218136#1 469218136#2 469218153#4 469218137#0 469218137#1 469218137#2 469218159#4 469218131#0 469218131#1 469218131#2 469218164#4 469218130#0 469218130#1 469218130#2 469218170#4 469218129#4 469218129#5 469218129#6 469218175#4 469218126#4 469218126#5 469218126#6 469218182#2 469218134#1 469218119#1 469218121#1 45399268#0 196657716 263977110 242366590 7525760#1 7525760#0 7525634#0 7525634#1 314449728#1 662598221#1 7525975#2 7525975#0 7525948#2 7525948#1 7525948#0 53106697#3 53106697#2 662598195#1 7523395#1 7523395#0 465277872#3 465277872#2 465277872#0 7523121#5 7523121#3 146720492 -7523120#0 -7523163 -292763621 -534327204#4 -534327204#3 -534327204#2 -534327204#0 7523183 -7523100#1 -7523100#0 231866825#1 231866825#0 -300564405#1 41669969#1 41669969#0 7523227#1 7523227#0 7523242#0 7523242#1 7523242#2 -495636715#1 342124684 7523307 7523316 -7523198#4 -7523198#3 -477449223#3"/>
    </person>
    <person id="ped61" type="ped_pedestrian" depart="63.96">