<?xml version="1.0" encoding="UTF-8"?>

<!-- generated on 02/13/19 14:14:40 by Eclipse SUMO duarouter Version v1_1_0+0666-d03de0290d
<configuration xmlns:xsi="http://www.w3.org/2001/XMLSchema-instance" xsi:noNamespaceSchemaLocation="http://sumo.dlr.de/xsd/duarouterConfiguration.xsd">

    <input>
        <net-file value="D:\Wang\sumo_git\tools\2019-02-13-14-13-18\osm.net.xml"/>
        <route-files value="D:\Wang\sumo_git\tools\2019-02-13-14-13-18\osm.bicycle.trips.xml"/>
    </input>

    <output>
        <output-file value="D:\Wang\sumo_git\tools\2019-02-13-14-13-18\osm.bicycle.trips.xml.tmp"/>
        <write-trips value="true"/>
    </output>

    <time>
        <begin value="0"/>
        <end value="3600.0"/>
    </time>

    <report>
        <no-warnings value="true"/>
        <ignore-errors value="true"/>
        <no-step-log value="true"/>
    </report>

</configuration>
-->

<routes xmlns:xsi="http://www.w3.org/2001/XMLSchema-instance" xsi:noNamespaceSchemaLocation="http://sumo.dlr.de/xsd/routes_file.xsd">
    <vType id="bike_bicycle" vClass="bicycle"/>
    <trip id="bike0" type="bike_bicycle" depart="0.00" departLane="best" from="60062721" to="-184643099#1"/>
    <trip id="bike6" type="bike_bicycle" depart="10.56" departLane="best" departSpeed="max" from="-185437831#3" to="-7522977"/>
    <trip id="bike8" type="bike_bicycle" depart="14.08" departLane="best" from="-7522990#0" to="51166338"/>
    <trip id="bike14" type="bike_bicycle" depart="24.64" departLane="best" from="7523255#2" to="527975373"/>
    <trip id="bike16" type="bike_bicycle" depart="28.16" departLane="best" departSpeed="max" from="485468131#0" to="7526893#0"/>
    <trip id="bike19" type="bike_bicycle" depart="33.44" departLane="best" from="7523351#1" to="509256252#0"/>
    <trip id="bike20" type="bike_bicycle" depart="35.20" departLane="best" from="72086491#1" to="-28008407#4"/>
    <trip id="bike21" type="bike_bicycle" depart="36.96" departLane="best" from="-7523057#3" to="130188760#2"/>
    <trip id="bike22" type="bike_bicycle" depart="38.72" departLane="best" from="-45741960#1" to="-7525634#0"/>
    <trip id="bike26" type="bike_bicycle" depart="45.76" departLane="best" from="-7525851#2" to="7525970#2"/>
    <trip id="bike27" type="bike_bicycle" depart="47.52" departLane="best" from="623095349" to="52940133#2"/>
    <trip id="bike29" type="bike_bicycle" depart="51.04" departLane="best" from="-66861572#3" to="28008366#3"/>
    <trip id="bike34" type="bike_bicycle" depart="59.84" departLane="best" from="130209605#3" to="-90908793#4"/>
    <trip id="bike35" type="bike_bicycle" depart="61.60" departLane="best" from="-7522872#0" to="7526704#1"/>
    <trip id="bike39" type="bike_bicycle" depart="68.64" departLane="best" from="-7525839" to="-7525881#0"/>
    <trip id="bike42" type="bike_bicycle" depart="73.92" departLane="best" from="28008366#0" to="-7523191#1"/>
    <trip id="bike43" type="bike_bicycle" depart="75.67" departLane="best" departSpeed="max" from="90908793#0" to="48377500#1"/>
    <trip id="bike44" type="bike_bicycle" depart="77.43" departLane="best" from="-469539934#0" to="-28393197#1"/>
    <trip id="bike50" type="bike_bicycle" depart="87.99" departLane="best" from="-129929612" to="7514144#1"/>
    <trip id="bike53" type="bike_bicycle" depart="93.27" departLane="best" from="-494143965#4" to="403090795"/>
    <trip id="bike56" type="bike_bicycle" depart="98.55" departLane="best" from="47384352#1" to="-7515335"/>
    <trip id="bike71" type="bike_bicycle" depart="124.95" departLane="best" from="-7525839" to="7525588#2"/>
    <trip id="bike73" type="bike_bicycle" depart="128.47" departLane="best" from="488658842#3" to="7514966#1"/>
    <trip id="bike79" type="bike_bicycle" depart="139.03" departLane="best" from="-7523090#0" to="-7523198#3"/>
    <trip id="bike86" type="bike_bicycle" depart="151.35" departLane="best" from="45514399#0" to="7522890#1"/>
    <trip id="bike90" type="bike_bicycle" depart="158.39" departLane="best" from="7514164#1" to="68014255#4"/>
    <trip id="bike92" type="bike_bicycle" depart="161.91" departLane="best" from="28008405#3" to="202835410#1"/>
    <trip id="bike96" type="bike_bicycle" depart="168.95" departLane="best" from="-7523318" to="7525915"/>
    <trip id="bike97" type="bike_bicycle" depart="170.71" departLane="best" from="385116440" to="7523371#2"/>
    <trip id="bike98" type="bike_bicycle" depart="172.47" departLane="best" from="49076547#4" to="-292763644"/>
    <trip id="bike102" type="bike_bicycle" depart="179.51" departLane="best" from="465277875#2" to="-7523123"/>
    <trip id="bike103" type="bike_bicycle" depart="181.27" departLane="best" from="28008371#1" to="-34632201#2"/>
    <trip id="bike108" type="bike_bicycle" depart="190.07" departLane="best" from="491013319" to="7514123#2"/>
    <trip id="bike112" type="bike_bicycle" depart="197.11" departLane="best" from="-338856477#0" to="510807260#0"/>
    <trip id="bike114" type="bike_bicycle" depart="200.63" departLane="best" departSpeed="max" from="-648707667" to="7526848"/>
    <trip id="bike122" type="bike_bicycle" depart="214.71" departLane="best" from="-7515450#5" to="7514103#0"/>
    <trip id="bike127" type="bike_bicycle" depart="223.51" departLane="best" from="90908793#15" to="88600819#0"/>
    <trip id="bike128" type="bike_bicycle" depart="225.27" departLane="best" from="-435000166" to="-7523121#3"/>
    <trip id="bike129" type="bike_bicycle" depart="227.02" departLane="best" from="-7525840" to="7525948#0"/>
    <trip id="bike134" type="bike_bicycle" depart="235.82" departLane="best" from="643106956#0" to="-123007211#1"/>
    <trip id="bike137" type="bike_bicycle" depart="241.10" departLane="best" departSpeed="max" from="-527972345" to="-51166336"/>
    <trip id="bike139" type="bike_bicycle" depart="244.62" departLane="best" from="-7525968#5" to="528159309#0"/>
    <trip id="bike143" type="bike_bicycle" depart="251.66" departLane="best" departSpeed="max" from="7523247" to="-48071871#0"/>
    <trip id="bike147" type="bike_bicycle" depart="258.70" departLane="best" from="7514997" to="495634784"/>
    <trip id="bike151" type="bike_bicycle" depart="265.74" departLane="best" from="7523160#1" to="510639070#1"/>
    <trip id="bike153" type="bike_bicycle" depart="269.26" departLane="best" from="123007214#0" to="7525770#3"/>
    <trip id="bike159" type="bike_bicycle" depart="279.82" departLane="best" from="-643106963" to="7525932#0"/>
    <trip id="bike160" type="bike_bicycle" depart="281.58" departLane="best" from="7523361#6" to="7526919"/>
    <trip id="bike166" type="bike_bicycle" depart="292.14" departLane="best" from="7522868" to="-499072498#0"/>
    <trip id="bike169" type="bike_bicycle" depart="297.42" departLane="best" from="424896166" to="138999769#7"/>
    <trip id="bike179" type="bike_bicycle" depart="315.02" departLane="best" from="-48978159#2" to="403090783"/>
    <trip id="bike180" type="bike_bicycle" depart="316.78" departLane="best" from="7514157" to="147059787#4"/>
    <trip id="bike181" type="bike_bicycle" depart="318.54" departLane="best" from="527975373" to="48377503#2"/>
    <trip id="bike182" type="bike_bicycle" depart="320.30" departLane="best" from="276637031#1" to="509256250"/>
    <trip id="bike184" type="bike_bicycle" depart="323.82" departLane="best" departSpeed="max" from="-121266073" to="7525920#1"/>
    <trip id="bike189" type="bike_bicycle" depart="332.62" departLane="best" from="130206174#1" to="7523290#2"/>
    <trip id="bike191" type="bike_bicycle" depart="336.14" departLane="best" from="123504061#0" to="325773891#3"/>
    <trip id="bike193" type="bike_bicycle" depart="339.66" departLane="best" from="-510639056#6" to="381975382"/>
    <trip id="bike198" type="bike_bicycle" depart="348.46" departLane="best" from="325773893#1" to="510639056#4"/>
    <trip id="bike201" type="bike_bicycle" depart="353.74" departLane="best" from="45514399#3" to="7525778#0"/>
    <trip id="bike202" type="bike_bicycle" depart="355.50" departLane="best" from="7522944" to="-7514956#0"/>
    <trip id="bike209" type="bike_bicycle" depart="367.82" departLane="best" from="7523270" to="-452627652#2"/>
    <trip id="bike217" type="bike_bicycle" depart="381.89" departLane="best" from="48244692" to="-292763621"/>
    <trip id="bike219" type="bike_bicycle" depart="385.41" departLane="best" from="408247865#0" to="7523017#2"/>
    <trip id="bike220" type="bike_bicycle" depart="387.17" departLane="best" from="666374664#0" to="7527028#1"/>
    <trip id="bike224" type="bike_bicycle" depart="394.21" departLane="best" from="7523136#1" to="494134739#4"/>
    <trip id="bike225" type="bike_bicycle" depart="395.97" departLane="best" from="7525747#2" to="7515100#4"/>
    <trip id="bike236" type="bike_bicycle" depart="415.33" departLane="best" from="314449728#0" to="-7523059#1"/>
    <trip id="bike242" type="bike_bicycle" depart="425.89" departLane="best" from="7523290#1" to="7526783"/>
    <trip id="bike244" type="bike_bicycle" depart="429.41" departLane="best" from="49076526" to="52797249"/>
    <trip id="bike247" type="bike_bicycle" depart="434.69" departLane="best" from="144716548#1" to="69476389#2"/>
    <trip id="bike248" type="bike_bicycle" depart="436.45" departLane="best" from="28008421#1" to="-7514129#1"/>
    <trip id="bike249" type="bike_bicycle" depart="438.21" departLane="best" from="448387121" to="-542914268"/>
    <trip id="bike252" type="bike_bicycle" depart="443.49" departLane="best" departSpeed="max" from="-186949584#3" to="61888290#4"/>
    <trip id="bike254" type="bike_bicycle" depart="447.01" departLane="best" from="-284293317#0" to="28008366#2"/>
    <trip id="bike260" type="bike_bicycle" depart="457.57" departLane="best" from="90908793#9" to="255337454#1"/>
    <trip id="bike272" type="bike_bicycle" depart="478.69" departLane="best" from="129929612" to="69476374#2"/>
    <trip id="bike277" type="bike_bicycle" depart="487.49" departLane="best" from="7523273" to="527972346#1"/>
    <trip id="bike281" type="bike_bicycle" depart="494.53" departLane="best" departSpeed="max" from="477447059#0" to="224160842#1"/>
    <trip id="bike283" type="bike_bicycle" depart="498.05" departLane="best" from="-488658842#11" to="7526848"/>
    <trip id="bike285" type="bike_bicycle" depart="501.57" departLane="best" from="72086557#2" to="405782632"/>
    <trip id="bike287" type="bike_bicycle" depart="505.09" departLane="best" departSpeed="max" from="-7525881#1" to="7523045"/>
    <trip id="bike288" type="bike_bicycle" depart="506.85" departLane="best" from="488658842#0" to="47367743#0"/>
    <trip id="bike289" type="bike_bicycle" depart="508.61" departLane="best" departSpeed="max" from="339460355#0" to="7514973"/>
    <trip id="bike291" type="bike_bicycle" depart="512.13" departLane="best" from="7523136#2" to="-474271945"/>
    <trip id="bike300" type="bike_bicycle" depart="527.97" departLane="best" from="-458897685#0" to="7514137#1"/>
    <trip id="bike302" type="bike_bicycle" depart="531.48" departLane="best" from="70006227#3" to="623095349"/>
    <trip id="bike304" type="bike_bicycle" depart="535.00" departLane="best" from="-469539940#1" to="-7523218#1"/>
    <trip id="bike310" type="bike_bicycle" depart="545.56" departLane="best" from="-7525615#0" to="-527975375"/>
    <trip id="bike314" type="bike_bicycle" depart="552.60" departLane="best" from="465277872#5" to="7514188#1"/>
    <trip id="bike321" type="bike_bicycle" depart="564.92" departLane="best" from="71157010#0" to="-534327204#0"/>
    <trip id="bike322" type="bike_bicycle" depart="566.68" departLane="best" from="7523382#0" to="477449223#3"/>
    <trip id="bike323" type="bike_bicycle" depart="568.44" departLane="best" from="7523399#1" to="507994578"/>
    <trip id="bike325" type="bike_bicycle" depart="571.96" departLane="best" from="-7514129#1" to="-292763645#2"/>
    <trip id="bike330" type="bike_bicycle" depart="580.76" departLane="best" from="494134739#4" to="137688693"/>
    <trip id="bike332" type="bike_bicycle" depart="584.28" departLane="best" from="7515403#2" to="528162694#2"/>
    <trip id="bike333" type="bike_bicycle" depart="586.04" departLane="best" from="7522886#0" to="-7523273"/>
    <trip id="bike334" type="bike_bicycle" depart="587.80" departLane="best" from="48247749#0" to="452627652#2"/>
    <trip id="bike343" type="bike_bicycle" depart="603.64" departLane="best" from="511304628#0" to="130209605#1"/>
    <trip id="bike352" type="bike_bicycle" depart="619.48" departLane="best" from="-69476382#1" to="142153166"/>
    <trip id="bike357" type="bike_bicycle" depart="628.28" departLane="best" departSpeed="max" from="469539933" to="-466095942#0"/>
    <trip id="bike363" type="bike_bicycle" depart="638.84" departLane="best" from="66838301" to="102157920"/>
    <trip id="bike370" type="bike_bicycle" depart="651.16" departLane="best" from="66676467#0" to="7523361#13"/>
    <trip id="bike375" type="bike_bicycle" depart="659.96" departLane="best" departSpeed="max" from="133197471" to="7526886#1"/>
    <trip id="bike378" type="bike_bicycle" depart="665.24" departLane="best" from="48978151" to="339182297#1"/>
    <trip id="bike384" type="bike_bicycle" depart="675.80" departLane="best" departSpeed="max" from="-499246570" to="7526893#0"/>
    <trip id="bike386" type="bike_bicycle" depart="679.31" departLane="best" from="-662745207" to="495632749"/>
    <trip id="bike390" type="bike_bicycle" depart="686.35" departLane="best" from="7523142" to="48071866"/>
    <trip id="bike391" type="bike_bicycle" depart="688.11" departLane="best" from="7514052#0" to="48377499#2"/>
    <trip id="bike394" type="bike_bicycle" depart="693.39" departLane="best" from="49076559#1" to="28008421#0"/>
    <trip id="bike410" type="bike_bicycle" depart="721.55" departLane="best" from="7523039#1" to="28393197#3"/>
    <trip id="bike413" type="bike_bicycle" depart="726.83" departLane="best" from="-272689005#0" to="48244692"/>
    <trip id="bike416" type="bike_bicycle" depart="732.11" departLane="best" from="48377502#4" to="45662550#2"/>
    <trip id="bike417" type="bike_bicycle" depart="733.87" departLane="best" from="7514098#2" to="332035666"/>
    <trip id="bike420" type="bike_bicycle" depart="739.15" departLane="best" from="147059787#6" to="71166883#0"/>
    <trip id="bike427" type="bike_bicycle" depart="751.47" departLane="best" from="7525866" to="89306300#5"/>
    <trip id="bike431" type="bike_bicycle" depart="758.51" departLane="best" from="70031379#1" to="7525785"/>
    <trip id="bike436" type="bike_bicycle" depart="767.31" departLane="best" from="-70030621#1" to="-465277872#1"/>
    <trip id="bike439" type="bike_bicycle" depart="772.59" departLane="best" from="-53213691" to="457972591"/>
    <trip id="bike444" type="bike_bicycle" depart="781.39" departLane="best" from="15683918#0" to="511304628#3"/>
    <trip id="bike445" type="bike_bicycle" depart="783.15" departLane="best" from="60062720#2" to="386750311"/>
    <trip id="bike447" type="bike_bicycle" depart="786.67" departLane="best" from="-7515364#0" to="281153197#1"/>
    <trip id="bike450" type="bike_bicycle" depart="791.95" departLane="best" from="80880847#5" to="131077046#1"/>
    <trip id="bike452" type="bike_bicycle" depart="795.47" departLane="best" departSpeed="max" from="-7526699" to="504538932#0"/>
    <trip id="bike454" type="bike_bicycle" depart="798.99" departLane="best" from="-28393197#1" to="528162694#2"/>
    <trip id="bike458" type="bike_bicycle" depart="806.03" departLane="best" from="591632599#3" to="536507106#2"/>
    <trip id="bike461" type="bike_bicycle" depart="811.31" departLane="best" from="54512989#0" to="7525785"/>
    <trip id="bike470" type="bike_bicycle" depart="827.15" departLane="best" from="7523102" to="469539943#1"/>
    <trip id="bike471" type="bike_bicycle" depart="828.91" departLane="best" from="7523017#2" to="7515167#1"/>
    <trip id="bike475" type="bike_bicycle" depart="835.94" departLane="best" from="7514103#2" to="7526953#0"/>
    <trip id="bike478" type="bike_bicycle" depart="841.22" departLane="best" from="-135577172#6" to="49076559#1"/>
    <trip id="bike481" type="bike_bicycle" depart="846.50" departLane="best" departSpeed="max" from="7523091#0" to="7526326#1"/>
    <trip id="bike483" type="bike_bicycle" depart="850.02" departLane="best" departSpeed="max" from="-178055619#1" to="7525672"/>
    <trip id="bike487" type="bike_bicycle" depart="857.06" departLane="best" from="122964101#10" to="325773891#3"/>
    <trip id="bike493" type="bike_bicycle" depart="867.62" departLane="best" from="7526713" to="36908800#2"/>
    <trip id="bike494" type="bike_bicycle" depart="869.38" departLane="best" from="7515010#0" to="-71166879"/>
    <trip id="bike499" type="bike_bicycle" depart="878.18" departLane="best" from="7526748" to="7523343#5"/>
    <trip id="bike513" type="bike_bicycle" depart="902.82" departLane="best" from="-122964085" to="7523361#3"/>
    <trip id="bike517" type="bike_bicycle" depart="909.86" departLane="best" from="-138999769#3" to="7522942#0"/>
    <trip id="bike520" type="bike_bicycle" depart="915.14" departLane="best" from="7514998#1" to="48978094"/>
    <trip id="bike523" type="bike_bicycle" depart="920.42" departLane="best" from="-49076556#1" to="48247743#15"/>
    <trip id="bike525" type="bike_bicycle" depart="923.94" departLane="best" departSpeed="max" from="7522828" to="7523399#10"/>
    <trip id="bike526" type="bike_bicycle" depart="925.70" departLane="best" from="48247744#0" to="45741960#0"/>
    <trip id="bike527" type="bike_bicycle" depart="927.46" departLane="best" from="7526852#1" to="-381975387"/>
    <trip id="bike529" type="bike_bicycle" depart="930.98" departLane="best" from="69476391#2" to="477447066"/>
    <trip id="bike530" type="bike_bicycle" depart="932.74" departLane="best" from="7525805" to="-45340669#0"/>
    <trip id="bike531" type="bike_bicycle" depart="934.50" departLane="best" departSpeed="max" from="-45754206#4" to="52940124#0"/>
    <trip id="bike532" type="bike_bicycle" depart="936.26" departLane="best" from="-386749600" to="122964085"/>
    <trip id="bike541" type="bike_bicycle" depart="952.10" departLane="best" from="147059801#0" to="45514398#0"/>
    <trip id="bike544" type="bike_bicycle" depart="957.38" departLane="best" from="266940325#3" to="-70038844#0"/>
    <trip id="bike548" type="bike_bicycle" depart="964.42" departLane="best" from="7523041" to="49772933#4"/>
    <trip id="bike551" type="bike_bicycle" depart="969.70" departLane="best" from="181070185#6" to="66676468#1"/>
    <trip id="bike556" type="bike_bicycle" depart="978.50" departLane="best" departSpeed="max" from="643453139#0" to="-7523255#1"/>
    <trip id="bike557" type="bike_bicycle" depart="980.26" departLane="best" from="-48978159#1" to="7523276#1"/>
    <trip id="bike567" type="bike_bicycle" depart="997.85" departLane="best" departSpeed="max" from="7523390" to="504540599#0"/>
    <trip id="bike569" type="bike_bicycle" depart="1001.37" departLane="best" from="589529355" to="-231865209"/>
    <trip id="bike571" type="bike_bicycle" depart="1004.89" departLane="best" from="315069732#1" to="223500996"/>
    <trip id="bike573" type="bike_bicycle" depart="1008.41" departLane="best" from="7522804" to="504540606"/>
    <trip id="bike575" type="bike_bicycle" depart="1011.93" departLane="best" departSpeed="max" from="-648707667" to="53106709#5"/>
    <trip id="bike581" type="bike_bicycle" depart="1022.49" departLane="best" from="68014255#1" to="474651518#0"/>
    <trip id="bike587" type="bike_bicycle" depart="1033.05" departLane="best" from="-123007208" to="7515208#1"/>
    <trip id="bike590" type="bike_bicycle" depart="1038.33" departLane="best" from="7523151#0" to="7523032#1"/>
    <trip id="bike594" type="bike_bicycle" depart="1045.37" departLane="best" from="504538932#0" to="507994576"/>
    <trip id="bike595" type="bike_bicycle" depart="1047.13" departLane="best" from="72087718" to="348211119"/>
    <trip id="bike597" type="bike_bicycle" depart="1050.65" departLane="best" from="135577172#3" to="7523017#2"/>
    <trip id="bike606" type="bike_bicycle" depart="1066.49" departLane="best" from="7525778#2" to="255337430"/>
    <trip id="bike607" type="bike_bicycle" depart="1068.25" departLane="best" from="7514137#2" to="7523093#0"/>
    <trip id="bike608" type="bike_bicycle" depart="1070.01" departLane="best" from="7523057#3" to="-7525761#0"/>
    <trip id="bike613" type="bike_bicycle" depart="1078.81" departLane="best" from="7515210#1" to="7515415"/>
    <trip id="bike615" type="bike_bicycle" depart="1082.33" departLane="best" from="49456454#1" to="59293112#0"/>
    <trip id="bike620" type="bike_bicycle" depart="1091.13" departLane="best" from="-317519419#2" to="48247749#0"/>
    <trip id="bike622" type="bike_bicycle" depart="1094.65" departLane="best" from="-325773893#0" to="7523175#0"/>
    <trip id="bike628" type="bike_bicycle" depart="1105.21" departLane="best" from="7523029#0" to="643120086#0"/>
    <trip id="bike630" type="bike_bicycle" depart="1108.73" departLane="best" departSpeed="max" from="-61912069" to="-384731191"/>
    <trip id="bike631" type="bike_bicycle" depart="1110.49" departLane="best" from="-48377518#1" to="7525770#4"/>
    <trip id="bike633" type="bike_bicycle" depart="1114.01" departLane="best" from="475591264#1" to="-7515031"/>
    <trip id="bike634" type="bike_bicycle" depart="1115.77" departLane="best" from="-7523283#0" to="408247866#1"/>
    <trip id="bike635" type="bike_bicycle" depart="1117.53" departLane="best" from="34639106" to="488658838#3"/>
    <trip id="bike639" type="bike_bicycle" depart="1124.57" departLane="best" from="7522874#0" to="633328431"/>
    <trip id="bike641" type="bike_bicycle" depart="1128.09" departLane="best" from="68014255#1" to="123504015#0"/>
    <trip id="bike642" type="bike_bicycle" depart="1129.85" departLane="best" from="7514103#0" to="66164457"/>
    <trip id="bike645" type="bike_bicycle" depart="1135.12" departLane="best" from="-52940133#5" to="255337454#1"/>
    <trip id="bike646" type="bike_bicycle" depart="1136.88" departLane="best" from="7526871#1" to="72086554#2"/>
    <trip id="bike647" type="bike_bicycle" depart="1138.64" departLane="best" from="27958736#0" to="527657594"/>
    <trip id="bike648" type="bike_bicycle" depart="1140.40" departLane="best" from="7525964#0" to="142153208#1"/>
    <trip id="bike650" type="bike_bicycle" depart="1143.92" departLane="best" from="7523048#1" to="669324674#1"/>
    <trip id="bike652" type="bike_bicycle" depart="1147.44" departLane="best" from="69476390#0" to="48978135"/>
    <trip id="bike659" type="bike_bicycle" depart="1159.76" departLane="best" departSpeed="max" from="-481474610#2" to="7522805#0"/>
    <trip id="bike661" type="bike_bicycle" depart="1163.28" departLane="best" from="-272689130#0" to="188394244#0"/>
    <trip id="bike670" type="bike_bicycle" depart="1179.12" departLane="best" from="484167160#1" to="142153208#0"/>
    <trip id="bike672" type="bike_bicycle" depart="1182.64" departLane="best" from="7523163" to="27958730#1"/>
    <trip id="bike675" type="bike_bicycle" depart="1187.92" departLane="best" from="272689008#1" to="48978144#1"/>
    <trip id="bike679" type="bike_bicycle" depart="1194.96" departLane="best" from="7523399#4" to="495636717"/>
    <trip id="bike680" type="bike_bicycle" depart="1196.72" departLane="best" from="-48377512#0" to="7523279#1"/>
    <trip id="bike682" type="bike_bicycle" depart="1200.24" departLane="best" from="7515387#1" to="108382655#0"/>
    <trip id="bike683" type="bike_bicycle" depart="1202.00" departLane="best" from="7525775#1" to="-69476389#2"/>
    <trip id="bike685" type="bike_bicycle" depart="1205.52" departLane="best" from="-7523025" to="45266152#0"/>
    <trip id="bike686" type="bike_bicycle" depart="1207.28" departLane="best" from="177857140" to="-192310280#0"/>
    <trip id="bike688" type="bike_bicycle" depart="1210.80" departLane="best" from="-7523127#2" to="83520417#2"/>
    <trip id="bike690" type="bike_bicycle" depart="1214.32" departLane="best" from="7525925#1" to="7523220#1"/>
    <trip id="bike692" type="bike_bicycle" depart="1217.84" departLane="best" departSpeed="max" from="-527972356" to="129929610#0"/>
    <trip id="bike696" type="bike_bicycle" depart="1224.88" departLane="best" from="-45656685#9" to="-7526854#1"/>
    <trip id="bike700" type="bike_bicycle" depart="1231.92" departLane="best" from="122964100#0" to="-28393197#4"/>
    <trip id="bike701" type="bike_bicycle" depart="1233.68" departLane="best" from="315069732#1" to="7522962#1"/>
    <trip id="bike706" type="bike_bicycle" depart="1242.48" departLane="best" from="325773891#3" to="53106704#4"/>
    <trip id="bike708" type="bike_bicycle" depart="1246.00" departLane="best" from="662639444" to="-469539944#0"/>
    <trip id="bike711" type="bike_bicycle" depart="1251.28" departLane="best" from="7527028#1" to="495636716#0"/>
    <trip id="bike712" type="bike_bicycle" depart="1253.04" departLane="best" from="27958734#2" to="465277875#0"/>
    <trip id="bike714" type="bike_bicycle" depart="1256.56" departLane="best" from="-7525676#2" to="-144933193#0"/>
    <trip id="bike717" type="bike_bicycle" depart="1261.84" departLane="best" from="7515451#2" to="7514998#2"/>
    <trip id="bike720" type="bike_bicycle" depart="1267.12" departLane="best" from="-72086491#0" to="7522852"/>
    <trip id="bike721" type="bike_bicycle" depart="1268.88" departLane="best" from="43634353#2" to="71821091#1"/>
    <trip id="bike730" type="bike_bicycle" depart="1284.71" departLane="best" from="185437765#0" to="7522867"/>
    <trip id="bike733" type="bike_bicycle" depart="1289.99" departLane="best" departSpeed="max" from="7525673#2" to="7515100#3"/>
    <trip id="bike734" type="bike_bicycle" depart="1291.75" departLane="best" from="7525718" to="284293317#0"/>
    <trip id="bike735" type="bike_bicycle" depart="1293.51" departLane="best" from="7526896#1" to="478595288#0"/>
    <trip id="bike740" type="bike_bicycle" depart="1302.31" departLane="best" from="49076525#0" to="15683918#0"/>
    <trip id="bike742" type="bike_bicycle" depart="1305.83" departLane="best" from="123007208" to="527972354"/>
    <trip id="bike743" type="bike_bicycle" depart="1307.59" departLane="best" departSpeed="max" from="324473258" to="70038844#3"/>
    <trip id="bike744" type="bike_bicycle" depart="1309.35" departLane="best" from="178409668#2" to="-27958733"/>
    <trip id="bike748" type="bike_bicycle" depart="1316.39" departLane="best" departSpeed="max" from="-444559598" to="60062720#3"/>
    <trip id="bike750" type="bike_bicycle" depart="1319.91" departLane="best" from="68014259#1" to="7526763#4"/>
    <trip id="bike751" type="bike_bicycle" depart="1321.67" departLane="best" from="-531282403#1" to="529253306#0"/>
    <trip id="bike753" type="bike_bicycle" depart="1325.19" departLane="best" from="-386750313#1" to="7522847#2"/>
    <trip id="bike758" type="bike_bicycle" depart="1333.99" departLane="best" from="504538921" to="49076515#0"/>
    <trip id="bike759" type="bike_bicycle" depart="1335.75" departLane="best" from="28008364#2" to="637148396"/>
    <trip id="bike761" type="bike_bicycle" depart="1339.27" departLane="best" from="7514877" to="48071871#1"/>
    <trip id="bike765" type="bike_bicycle" depart="1346.31" departLane="best" departSpeed="max" from="-7526929" to="7525863"/>
    <trip id="bike768" type="bike_bicycle" depart="1351.59" departLane="best" from="7525760#0" to="43634353#0"/>
    <trip id="bike770" type="bike_bicycle" depart="1355.11" departLane="best" from="7523242#2" to="147999011"/>
    <trip id="bike774" type="bike_bicycle" depart="1362.15" departLane="best" from="7525916#3" to="60062720#3"/>
    <trip id="bike778" type="bike_bicycle" depart="1369.19" departLane="best" from="-185437831#2" to="495636716#0"/>
    <trip id="bike779" type="bike_bicycle" depart="1370.95" departLane="best" from="232277371" to="7523027#1"/>
    <trip id="bike783" type="bike_bicycle" depart="1377.99" departLane="best" from="48377502#3" to="7515568#1"/>
    <trip id="bike786" type="bike_bicycle" depart="1383.27" departLane="best" from="397497469#0" to="69476391#2"/>
    <trip id="bike787" type="bike_bicycle" depart="1385.03" departLane="best" from="148106210#0" to="7525606#4"/>
    <trip id="bike792" type="bike_bicycle" depart="1393.83" departLane="best" from="-633303663" to="-7514128#0"/>
    <trip id="bike797" type="bike_bicycle" depart="1402.63" departLane="best" from="49076549" to="-53106703"/>
    <trip id="bike798" type="bike_bicycle" depart="1404.39" departLane="best" from="122964105#0" to="49076533"/>
    <trip id="bike800" type="bike_bicycle" depart="1407.91" departLane="best" from="7525976#2" to="-71166879"/>
    <trip id="bike801" type="bike_bicycle" depart="1409.67" departLane="best" from="652923474" to="7514144#0"/>
    <trip id="bike806" type="bike_bicycle" depart="1418.47" departLane="best" from="633328427" to="7515451#8"/>
    <trip id="bike813" type="bike_bicycle" depart="1430.79" departLane="best" from="361906307#1" to="47367743#3"/>
    <trip id="bike814" type="bike_bicycle" depart="1432.55" departLane="best" from="-7515450#4" to="528162694#3"/>
    <trip id="bike815" type="bike_bicycle" depart="1434.30" departLane="best" from="129929614#1" to="7514123#2"/>
    <trip id="bike819" type="bike_bicycle" depart="1441.34" departLane="best" from="131077046#1" to="4624504#1"/>
    <trip id="bike820" type="bike_bicycle" depart="1443.10" departLane="best" from="-7525851#5" to="-7525900#2"/>
    <trip id="bike826" type="bike_bicycle" depart="1453.66" departLane="best" from="7515387#1" to="480237695"/>
    <trip id="bike829" type="bike_bicycle" depart="1458.94" departLane="best" departSpeed="max" from="7526705" to="48247743#7"/>
    <trip id="bike830" type="bike_bicycle" depart="1460.70" departLane="best" from="7526865" to="-7523136#1"/>
    <trip id="bike835" type="bike_bicycle" depart="1469.50" departLane="best" from="325822878#3" to="7525641"/>
    <trip id="bike843" type="bike_bicycle" depart="1483.58" departLane="best" from="7526907#0" to="314449719"/>