<?xml version="1.0" encoding="UTF-8"?>

<!-- generated on 02/13/19 14:14:31 by Eclipse SUMO duarouter Version v1_1_0+0666-d03de0290d
<configuration xmlns:xsi="http://www.w3.org/2001/XMLSchema-instance" xsi:noNamespaceSchemaLocation="http://sumo.dlr.de/xsd/duarouterConfiguration.xsd">

    <input>
        <net-file value="D:\Wang\sumo_git\tools\2019-02-13-14-13-18\osm.net.xml"/>
        <route-files value="D:\Wang\sumo_git\tools\2019-02-13-14-13-18\osm.passenger.trips.xml"/>
    </input>

    <output>
        <output-file value="D:\Wang\sumo_git\tools\2019-02-13-14-13-18\osm.passenger.trips.xml.tmp"/>
        <write-trips value="true"/>
    </output>

    <time>
        <begin value="0"/>
        <end value="3600.0"/>
    </time>

    <report>
        <no-warnings value="true"/>
        <ignore-errors value="true"/>
        <no-step-log value="true"/>
    </report>

</configuration>
-->

<routes xmlns:xsi="http://www.w3.org/2001/XMLSchema-instance" xsi:noNamespaceSchemaLocation="http://sumo.dlr.de/xsd/routes_file.xsd">
    <vType id="veh_passenger" vClass="passenger"/>
    <trip id="veh5" type="veh_passenger" depart="4.39" departLane="best" departSpeed="max" from="-292763600#1" to="-7525825#0"/>
    <trip id="veh7" type="veh_passenger" depart="6.15" departLane="best" from="-7526742" to="70038587"/>
    <trip id="veh8" type="veh_passenger" depart="7.03" departLane="best" from="7523375" to="-147059787#0"/>
    <trip id="veh9" type="veh_passenger" depart="7.91" departLane="best" from="7523371#2" to="7522867"/>
    <trip id="veh10" type="veh_passenger" depart="8.78" departLane="best" departSpeed="max" from="314449726#0" to="-7523057#2"/>
    <trip id="veh11" type="veh_passenger" depart="9.66" departLane="best" from="7526852#1" to="314449721#0"/>
    <trip id="veh15" type="veh_passenger" depart="13.18" departLane="best" from="534327204#4" to="7526898"/>
    <trip id="veh16" type="veh_passenger" depart="14.05" departLane="best" from="385428679#0" to="60063761#0"/>
    <trip id="veh18" type="veh_passenger" depart="15.81" departLane="best" departSpeed="max" from="7525761#0" to="66676468#0"/>
    <trip id="veh20" type="veh_passenger" depart="17.57" departLane="best" from="-7526863#3" to="181070185#5"/>
    <trip id="veh22" type="veh_passenger" depart="19.33" departLane="best" from="-7514993#0" to="150955883"/>
    <trip id="veh23" type="veh_passenger" depart="20.20" departLane="best" from="7514184#0" to="338856485#1"/>
    <trip id="veh28" type="veh_passenger" depart="24.60" departLane="best" from="-7523133" to="397497464#3"/>
    <trip id="veh29" type="veh_passenger" depart="25.47" departLane="best" from="7527015#1" to="7515060#3"/>
    <trip id="veh30" type="veh_passenger" depart="26.35" departLane="best" from="7525613#1" to="7523290#0"/>
    <trip id="veh32" type="veh_passenger" depart="28.11" departLane="best" from="266940325#2" to="147059787#0"/>
    <trip id="veh37" type="veh_passenger" depart="32.50" departLane="best" from="138999778#2" to="130209605#7"/>
    <trip id="veh38" type="veh_passenger" depart="33.38" departLane="best" from="666374662" to="7525925#0"/>
    <trip id="veh39" type="veh_passenger" depart="34.26" departLane="best" from="420011476#2" to="-7526800"/>
    <trip id="veh41" type="veh_passenger" depart="36.02" departLane="best" from="-7514123#2" to="-447026598#0"/>
    <trip id="veh44" type="veh_passenger" depart="38.65" departLane="best" departSpeed="max" from="-527657594" to="397497469#1"/>
    <trip id="veh51" type="veh_passenger" depart="44.80" departLane="best" from="48377503#1" to="7526852#0"/>
    <trip id="veh52" type="veh_passenger" depart="45.68" departLane="best" from="7525822#1" to="142153166"/>
    <trip id="veh55" type="veh_passenger" depart="48.31" departLane="best" from="184643098#0" to="7515060#1"/>
    <trip id="veh61" type="veh_passenger" depart="53.58" departLane="best" from="7525832" to="7525594#1"/>
    <trip id="veh62" type="veh_passenger" depart="54.46" departLane="best" from="224160843#2" to="-48978159#2"/>
    <trip id="veh63" type="veh_passenger" depart="55.34" departLane="best" from="7525829#1" to="7526821"/>
    <trip id="veh74" type="veh_passenger" depart="65.00" departLane="best" from="-7526872#1" to="-7526813"/>
    <trip id="veh75" type="veh_passenger" depart="65.88" departLane="best" from="-589529358" to="7514993#1"/>
    <trip id="veh78" type="veh_passenger" depart="68.52" departLane="best" from="129524079" to="7515403#4"/>
    <trip id="veh82" type="veh_passenger" depart="72.03" departLane="best" departSpeed="max" from="7523373#0" to="-7525634#1"/>
    <trip id="veh85" type="veh_passenger" depart="74.67" departLane="best" from="7523001" to="7515437"/>
    <trip id="veh88" type="veh_passenger" depart="77.30" departLane="best" departSpeed="max" from="7525761#0" to="130303167#0"/>
    <trip id="veh89" type="veh_passenger" depart="78.18" departLane="best" departSpeed="max" from="-7525741#1" to="48377514#3"/>
    <trip id="veh96" type="veh_passenger" depart="84.33" departLane="best" from="7525666" to="-7523123"/>
    <trip id="veh104" type="veh_passenger" depart="91.36" departLane="best" from="-7523090#1" to="192310280#1"/>
    <trip id="veh110" type="veh_passenger" depart="96.63" departLane="best" departSpeed="max" from="-70038587" to="-7523328#0"/>
    <trip id="veh111" type="veh_passenger" depart="97.51" departLane="best" from="68014254#0" to="7515450#0"/>
    <trip id="veh114" type="veh_passenger" depart="100.14" departLane="best" from="68014250#2" to="7514157"/>
    <trip id="veh116" type="veh_passenger" depart="101.90" departLane="best" from="529253306#0" to="7526741"/>
    <trip id="veh117" type="veh_passenger" depart="102.78" departLane="best" from="-7525851#7" to="7522978#1"/>
    <trip id="veh119" type="veh_passenger" depart="104.53" departLane="best" from="7515335" to="223500996"/>
    <trip id="veh121" type="veh_passenger" depart="106.29" departLane="best" departSpeed="max" from="-59293222" to="49076515#0"/>
    <trip id="veh124" type="veh_passenger" depart="108.92" departLane="best" from="138999778#2" to="7526733#0"/>
    <trip id="veh125" type="veh_passenger" depart="109.80" departLane="best" from="7525833#2" to="7525863"/>
    <trip id="veh131" type="veh_passenger" depart="115.07" departLane="best" from="-7515100#4" to="60228899#0"/>
    <trip id="veh142" type="veh_passenger" depart="124.74" departLane="best" from="-643106957#0" to="7525875#1"/>
    <trip id="veh144" type="veh_passenger" depart="126.49" departLane="best" from="7523405#5" to="68014250#1"/>
    <trip id="veh146" type="veh_passenger" depart="128.25" departLane="best" from="224160844" to="7525925#4"/>
    <trip id="veh147" type="veh_passenger" depart="129.13" departLane="best" from="7523343#5" to="7525772#1"/>
    <trip id="veh148" type="veh_passenger" depart="130.01" departLane="best" from="130303167#1" to="-7514184#0"/>
    <trip id="veh150" type="veh_passenger" depart="131.76" departLane="best" departSpeed="max" from="447026598#0" to="7514184#0"/>
    <trip id="veh154" type="veh_passenger" depart="135.28" departLane="best" departSpeed="max" from="-292763599" to="7523057#3"/>
    <trip id="veh155" type="veh_passenger" depart="136.16" departLane="best" from="314449719" to="7526713"/>
    <trip id="veh159" type="veh_passenger" depart="139.67" departLane="best" departSpeed="max" from="-7526783" to="7523399#12"/>
    <trip id="veh160" type="veh_passenger" depart="140.55" departLane="best" from="488658842#1" to="224160847"/>
    <trip id="veh167" type="veh_passenger" depart="146.70" departLane="best" from="7526755" to="-7515100#5"/>
    <trip id="veh175" type="veh_passenger" depart="153.72" departLane="best" departSpeed="max" from="7523048#0" to="7515421"/>
    <trip id="veh177" type="veh_passenger" depart="155.48" departLane="best" from="7515161#1" to="292763617#1"/>
    <trip id="veh178" type="veh_passenger" depart="156.36" departLane="best" from="256766541" to="7525729"/>
    <trip id="veh180" type="veh_passenger" depart="158.12" departLane="best" from="231865209" to="45266152#0"/>
    <trip id="veh181" type="veh_passenger" depart="159.00" departLane="best" from="426887061#0" to="186949584#3"/>
    <trip id="veh186" type="veh_passenger" depart="163.39" departLane="best" from="-104486314" to="181070185#1"/>
    <trip id="veh187" type="veh_passenger" depart="164.27" departLane="best" from="7515060#2" to="49076545#3"/>
    <trip id="veh189" type="veh_passenger" depart="166.02" departLane="best" from="49076559#1" to="7525928#1"/>
    <trip id="veh195" type="veh_passenger" depart="171.29" departLane="best" from="130209605#3" to="494134728#3"/>
    <trip id="veh196" type="veh_passenger" depart="172.17" departLane="best" from="7525683#3" to="-530334599"/>
    <trip id="veh202" type="veh_passenger" depart="177.44" departLane="best" from="-7515100#3" to="477447061"/>
    <trip id="veh208" type="veh_passenger" depart="182.71" departLane="best" from="7525895#0" to="7514103#1"/>
    <trip id="veh209" type="veh_passenger" depart="183.59" departLane="best" from="7522938" to="509256252#3"/>
    <trip id="veh213" type="veh_passenger" depart="187.10" departLane="best" from="130209605#7" to="7515031"/>
    <trip id="veh214" type="veh_passenger" depart="187.98" departLane="best" from="7523163" to="52940118#1"/>
    <trip id="veh219" type="veh_passenger" depart="192.38" departLane="best" from="-7526904#0" to="7522834"/>
    <trip id="veh223" type="veh_passenger" depart="195.89" departLane="best" from="466091066" to="7525933#3"/>
    <trip id="veh232" type="veh_passenger" depart="203.79" departLane="best" from="314449724" to="7515451#7"/>
    <trip id="veh234" type="veh_passenger" depart="205.55" departLane="best" from="49076520" to="-7515512"/>
    <trip id="veh243" type="veh_passenger" depart="213.46" departLane="best" from="131077046#1" to="-628756768"/>
    <trip id="veh245" type="veh_passenger" depart="215.21" departLane="best" from="88600820" to="315069732#3"/>
    <trip id="veh246" type="veh_passenger" depart="216.09" departLane="best" from="7515010#1" to="7523333#1"/>
    <trip id="veh247" type="veh_passenger" depart="216.97" departLane="best" from="7515023#2" to="7523147#0"/>
    <trip id="veh268" type="veh_passenger" depart="235.42" departLane="best" from="-7515100#11" to="7526871#1"/>
    <trip id="veh271" type="veh_passenger" depart="238.05" departLane="best" from="7523017#2" to="7526883#2"/>
    <trip id="veh276" type="veh_passenger" depart="242.45" departLane="best" from="7523403#2" to="-70002165"/>
    <trip id="veh278" type="veh_passenger" depart="244.20" departLane="best" from="48978154#1" to="7514098#1"/>
    <trip id="veh279" type="veh_passenger" depart="245.08" departLane="best" from="385428679#0" to="-276637014"/>
    <trip id="veh281" type="veh_passenger" depart="246.84" departLane="best" from="-7525927" to="7523365"/>
    <trip id="veh283" type="veh_passenger" depart="248.59" departLane="best" departSpeed="max" from="7522357#0" to="148106208#1"/>
    <trip id="veh286" type="veh_passenger" depart="251.23" departLane="best" from="49456454#1" to="7523172#1"/>
    <trip id="veh288" type="veh_passenger" depart="252.99" departLane="best" from="495636714#2" to="7523361#13"/>
    <trip id="veh294" type="veh_passenger" depart="258.26" departLane="best" from="7522357#1" to="147059787#6"/>
    <trip id="veh296" type="veh_passenger" depart="260.01" departLane="best" from="-7525761#0" to="-7515403#1"/>
    <trip id="veh298" type="veh_passenger" depart="261.77" departLane="best" from="-7525593#2" to="-7526791"/>
    <trip id="veh302" type="veh_passenger" depart="265.28" departLane="best" from="-7525770#0" to="-7526934"/>
    <trip id="veh303" type="veh_passenger" depart="266.16" departLane="best" from="-7523270" to="-147998997"/>
    <trip id="veh309" type="veh_passenger" depart="271.43" departLane="best" from="-7525593#0" to="-465277872#1"/>
    <trip id="veh312" type="veh_passenger" depart="274.07" departLane="best" from="-623095349" to="7514973"/>
    <trip id="veh313" type="veh_passenger" depart="274.95" departLane="best" from="-492717172#1" to="-7523029#2"/>
    <trip id="veh314" type="veh_passenger" depart="275.83" departLane="best" from="61912072#1" to="224160843#2"/>
    <trip id="veh329" type="veh_passenger" depart="289.00" departLane="best" from="7523306#0" to="7514803"/>
    <trip id="veh330" type="veh_passenger" depart="289.88" departLane="best" from="7515100#5" to="7526733#1"/>
    <trip id="veh343" type="veh_passenger" depart="301.30" departLane="best" from="7525590#0" to="666374664#0"/>
    <trip id="veh344" type="veh_passenger" depart="302.18" departLane="best" from="7526825" to="88600819#2"/>
    <trip id="veh346" type="veh_passenger" depart="303.94" departLane="best" from="-398656394" to="7523149#2"/>
    <trip id="veh347" type="veh_passenger" depart="304.81" departLane="best" from="49076535#1" to="7515208#2"/>
    <trip id="veh348" type="veh_passenger" depart="305.69" departLane="best" from="7525959#1" to="-7523255#0"/>
    <trip id="veh349" type="veh_passenger" depart="306.57" departLane="best" from="495636716#0" to="-7514028#0"/>
    <trip id="veh351" type="veh_passenger" depart="308.33" departLane="best" from="7515247#1" to="7525764#1"/>
    <trip id="veh359" type="veh_passenger" depart="315.36" departLane="best" from="-7525627#3" to="325822850#0"/>
    <trip id="veh361" type="veh_passenger" depart="317.11" departLane="best" from="7523127#2" to="-7525862#1"/>
    <trip id="veh371" type="veh_passenger" depart="325.90" departLane="best" from="7526955#4" to="130209605#1"/>
    <trip id="veh373" type="veh_passenger" depart="327.65" departLane="best" from="7525975#3" to="51166334#2"/>
    <trip id="veh378" type="veh_passenger" depart="332.05" departLane="best" from="666374664#0" to="88600819#0"/>
    <trip id="veh380" type="veh_passenger" depart="333.80" departLane="best" departSpeed="max" from="53505262" to="315069727#1"/>
    <trip id="veh390" type="veh_passenger" depart="342.59" departLane="best" from="7525812" to="48247743#8"/>
    <trip id="veh393" type="veh_passenger" depart="345.22" departLane="best" from="7515060#2" to="-7523050#1"/>
    <trip id="veh394" type="veh_passenger" depart="346.10" departLane="best" from="49076529#2" to="7526887#2"/>
    <trip id="veh397" type="veh_passenger" depart="348.74" departLane="best" from="7525687#0" to="7525770#2"/>
    <trip id="veh398" type="veh_passenger" depart="349.61" departLane="best" from="385428681#4" to="270659695#1"/>
    <trip id="veh399" type="veh_passenger" depart="350.49" departLane="best" from="7522927" to="7523178#0"/>
    <trip id="veh400" type="veh_passenger" depart="351.37" departLane="best" from="7525802" to="-338856477#3"/>
    <trip id="veh404" type="veh_passenger" depart="354.88" departLane="best" from="-7514189#0" to="7514996#5"/>
    <trip id="veh406" type="veh_passenger" depart="356.64" departLane="best" from="7515451#6" to="7525932#3"/>
    <trip id="veh407" type="veh_passenger" depart="357.52" departLane="best" from="-452627652#2" to="7523361#6"/>
    <trip id="veh414" type="veh_passenger" depart="363.67" departLane="best" from="-7523029#0" to="49076528#3"/>
    <trip id="veh416" type="veh_passenger" depart="365.43" departLane="best" from="-173904587" to="7523381#1"/>
    <trip id="veh419" type="veh_passenger" depart="368.06" departLane="best" from="315069713" to="70038585"/>
    <trip id="veh426" type="veh_passenger" depart="374.21" departLane="best" from="7526942" to="7515334"/>
    <trip id="veh430" type="veh_passenger" depart="377.72" departLane="best" from="503858820#2" to="7525933#2"/>
    <trip id="veh431" type="veh_passenger" depart="378.60" departLane="best" from="163417103#0" to="7523365"/>
    <trip id="veh434" type="veh_passenger" depart="381.24" departLane="best" from="7514103#3" to="7525932#3"/>
    <trip id="veh435" type="veh_passenger" depart="382.12" departLane="best" from="48244688" to="66838301"/>
    <trip id="veh450" type="veh_passenger" depart="395.29" departLane="best" from="-19836336#1" to="54512989#0"/>
    <trip id="veh454" type="veh_passenger" depart="398.81" departLane="best" from="-7515100#8" to="128220853#0"/>
    <trip id="veh460" type="veh_passenger" depart="404.08" departLane="best" departSpeed="max" from="-7522978#1" to="7526817"/>
    <trip id="veh475" type="veh_passenger" depart="417.25" departLane="best" from="7525665#2" to="488658842#6"/>
    <trip id="veh476" type="veh_passenger" depart="418.13" departLane="best" from="7515100#9" to="7515063"/>
    <trip id="veh479" type="veh_passenger" depart="420.77" departLane="best" from="-7522868" to="66164425"/>
    <trip id="veh486" type="veh_passenger" depart="426.92" departLane="best" from="131077037#1" to="-7523198#4"/>
    <trip id="veh491" type="veh_passenger" depart="431.31" departLane="best" departSpeed="max" from="7523048#0" to="53106697#2"/>
    <trip id="veh493" type="veh_passenger" depart="433.06" departLane="best" from="7523242#0" to="527657594"/>
    <trip id="veh497" type="veh_passenger" depart="436.58" departLane="best" from="529253305#0" to="48978159#2"/>
    <trip id="veh499" type="veh_passenger" depart="438.33" departLane="best" departSpeed="max" from="7515441#0" to="503858820#5"/>
    <trip id="veh501" type="veh_passenger" depart="440.09" departLane="best" from="-71821099#0" to="7514080#0"/>
    <trip id="veh503" type="veh_passenger" depart="441.85" departLane="best" departSpeed="max" from="7514169#0" to="60062720#2"/>
    <trip id="veh508" type="veh_passenger" depart="446.24" departLane="best" from="7515023#0" to="7523241"/>
    <trip id="veh509" type="veh_passenger" depart="447.12" departLane="best" from="7522949" to="-7526749"/>
    <trip id="veh512" type="veh_passenger" depart="449.75" departLane="best" from="47517201" to="7515367#0"/>
    <trip id="veh514" type="veh_passenger" depart="451.51" departLane="best" from="7525976#1" to="-504542521#1"/>
    <trip id="veh515" type="veh_passenger" depart="452.39" departLane="best" from="7523404#0" to="-7514033#0"/>
    <trip id="veh526" type="veh_passenger" depart="462.05" departLane="best" from="-7515100#8" to="7525687#1"/>
    <trip id="veh533" type="veh_passenger" depart="468.20" departLane="best" from="142153166" to="-7523247"/>
    <trip id="veh548" type="veh_passenger" depart="481.38" departLane="best" from="7523118" to="-7515100#12"/>
    <trip id="veh554" type="veh_passenger" depart="486.65" departLane="best" from="-7525908#0" to="-7522871#0"/>
    <trip id="veh555" type="veh_passenger" depart="487.53" departLane="best" departSpeed="max" from="131077088#0" to="292763600#1"/>
    <trip id="veh562" type="veh_passenger" depart="493.68" departLane="best" departSpeed="max" from="66164444" to="666374663#0"/>
    <trip id="veh563" type="veh_passenger" depart="494.55" departLane="best" from="7522821#0" to="47293611#0"/>
    <trip id="veh565" type="veh_passenger" depart="496.31" departLane="best" from="272689008#0" to="7523371#1"/>
    <trip id="veh572" type="veh_passenger" depart="502.46" departLane="best" from="7525927" to="315069732#1"/>
    <trip id="veh574" type="veh_passenger" depart="504.22" departLane="best" departSpeed="max" from="7523390" to="129929614#0"/>
    <trip id="veh575" type="veh_passenger" depart="505.10" departLane="best" departSpeed="max" from="-7523043#3" to="-7525805"/>
    <trip id="veh579" type="veh_passenger" depart="508.61" departLane="best" from="7523117" to="7523178#0"/>
    <trip id="veh581" type="veh_passenger" depart="510.37" departLane="best" from="61913621" to="7515010#1"/>
    <trip id="veh585" type="veh_passenger" depart="513.88" departLane="best" from="19836336#0" to="147998980"/>
    <trip id="veh587" type="veh_passenger" depart="515.64" departLane="best" from="-495636715#1" to="7525594#1"/>
    <trip id="veh593" type="veh_passenger" depart="520.91" departLane="best" from="7523376" to="7515210#0"/>
    <trip id="veh595" type="veh_passenger" depart="522.66" departLane="best" from="-7523051" to="-492717172#1"/>
    <trip id="veh597" type="veh_passenger" depart="524.42" departLane="best" from="314449728#4" to="7522966#2"/>
    <trip id="veh598" type="veh_passenger" depart="525.30" departLane="best" from="504630482#0" to="-7523191#0"/>
    <trip id="veh599" type="veh_passenger" depart="526.18" departLane="best" from="130303137" to="48247743#15"/>
    <trip id="veh601" type="veh_passenger" depart="527.93" departLane="best" departSpeed="max" from="148106208#0" to="45270957"/>
    <trip id="veh603" type="veh_passenger" depart="529.69" departLane="best" from="7523318" to="7515100#8"/>
    <trip id="veh619" type="veh_passenger" depart="543.75" departLane="best" from="-663028863" to="7525685#4"/>
    <trip id="veh624" type="veh_passenger" depart="548.14" departLane="best" departSpeed="max" from="384731189#0" to="-7523120#1"/>
    <trip id="veh625" type="veh_passenger" depart="549.02" departLane="best" departSpeed="max" from="48233018#0" to="45662550#2"/>
    <trip id="veh629" type="veh_passenger" depart="552.53" departLane="best" departSpeed="max" from="534327204#0" to="255337455"/>
    <trip id="veh633" type="veh_passenger" depart="556.04" departLane="best" from="386851200" to="53106706#0"/>
    <trip id="veh641" type="veh_passenger" depart="563.07" departLane="best" departSpeed="max" from="48233018#0" to="7526817"/>
    <trip id="veh643" type="veh_passenger" depart="564.83" departLane="best" from="315069732#0" to="-268020102"/>
    <trip id="veh648" type="veh_passenger" depart="569.22" departLane="best" from="-7522972#0" to="181070185#1"/>
    <trip id="veh651" type="veh_passenger" depart="571.86" departLane="best" departSpeed="max" from="-70038587" to="131301772#2"/>
    <trip id="veh657" type="veh_passenger" depart="577.13" departLane="best" from="130206174#2" to="-7522966#1"/>
    <trip id="veh659" type="veh_passenger" depart="578.88" departLane="best" from="7515161#2" to="-66861573#0"/>
    <trip id="veh660" type="veh_passenger" depart="579.76" departLane="best" departSpeed="max" from="7526920" to="-508166495"/>
    <trip id="veh663" type="veh_passenger" depart="582.40" departLane="best" from="405782629" to="49076571#0"/>
    <trip id="veh664" type="veh_passenger" depart="583.28" departLane="best" from="7514184#0" to="7526958#0"/>
    <trip id="veh671" type="veh_passenger" depart="589.42" departLane="best" from="-7523227#0" to="7523318"/>
    <trip id="veh672" type="veh_passenger" depart="590.30" departLane="best" from="48978154#1" to="7522835#1"/>
    <trip id="veh675" type="veh_passenger" depart="592.94" departLane="best" from="48534332#0" to="185437745"/>
    <trip id="veh679" type="veh_passenger" depart="596.45" departLane="best" from="538579743" to="131242636"/>
    <trip id="veh686" type="veh_passenger" depart="602.60" departLane="best" from="7526919" to="504630480#1"/>
    <trip id="veh694" type="veh_passenger" depart="609.63" departLane="best" from="315069733#3" to="-384731189#2"/>
    <trip id="veh696" type="veh_passenger" depart="611.38" departLane="best" from="82313286" to="147998980"/>
    <trip id="veh697" type="veh_passenger" depart="612.26" departLane="best" from="7526953#0" to="7526828"/>
    <trip id="veh716" type="veh_passenger" depart="628.95" departLane="best" from="7525916#3" to="48377502#0"/>
    <trip id="veh718" type="veh_passenger" depart="630.71" departLane="best" from="7525634#0" to="272688314#3"/>
    <trip id="veh719" type="veh_passenger" depart="631.59" departLane="best" from="315069730#0" to="-495636715#1"/>
    <trip id="veh722" type="veh_passenger" depart="634.22" departLane="best" from="7526699" to="7515031"/>
    <trip id="veh723" type="veh_passenger" depart="635.10" departLane="best" from="7523340#1" to="51166335#0"/>
    <trip id="veh724" type="veh_passenger" depart="635.98" departLane="best" departSpeed="max" from="-7522834" to="-7525851#0"/>
    <trip id="veh729" type="veh_passenger" depart="640.37" departLane="best" departSpeed="max" from="-7514041" to="255337455"/>
    <trip id="veh735" type="veh_passenger" depart="645.64" departLane="best" departSpeed="max" from="7523247" to="7515060#2"/>
    <trip id="veh738" type="veh_passenger" depart="648.28" departLane="best" from="-494143965#5" to="-7515450#1"/>
    <trip id="veh742" type="veh_passenger" depart="651.79" departLane="best" from="7525908#0" to="7525700#1"/>
    <trip id="veh744" type="veh_passenger" depart="653.55" departLane="best" from="60062720#3" to="-7515450#5"/>
    <trip id="veh745" type="veh_passenger" depart="654.43" departLane="best" from="19836336#0" to="538579726"/>
    <trip id="veh748" type="veh_passenger" depart="657.06" departLane="best" from="7515098#0" to="7523012"/>
    <trip id="veh750" type="veh_passenger" depart="658.82" departLane="best" from="61912072#3" to="7523405#4"/>
    <trip id="veh751" type="veh_passenger" depart="659.70" departLane="best" from="-292763617#0" to="-43634353#3"/>
    <trip id="veh754" type="veh_passenger" depart="662.33" departLane="best" from="459426776" to="7515060#1"/>
    <trip id="veh765" type="veh_passenger" depart="672.00" departLane="best" departSpeed="max" from="339460355#0" to="633328431"/>
    <trip id="veh770" type="veh_passenger" depart="676.39" departLane="best" from="130303160#1" to="7525802"/>
    <trip id="veh775" type="veh_passenger" depart="680.78" departLane="best" from="224160845" to="-231865210"/>
    <trip id="veh781" type="veh_passenger" depart="686.05" departLane="best" departSpeed="max" from="53505262" to="7525718"/>
    <trip id="veh782" type="veh_passenger" depart="686.93" departLane="best" departSpeed="max" from="477447064#0" to="7525875#1"/>
    <trip id="veh785" type="veh_passenger" depart="689.56" departLane="best" from="633328427" to="-7525770#0"/>
    <trip id="veh787" type="veh_passenger" depart="691.32" departLane="best" from="504630481#0" to="7523209#3"/>
    <trip id="veh792" type="veh_passenger" depart="695.71" departLane="best" from="7526754" to="7523149#2"/>
    <trip id="veh793" type="veh_passenger" depart="696.59" departLane="best" from="-7525821" to="51166335#1"/>
    <trip id="veh794" type="veh_passenger" depart="697.47" departLane="best" from="504540608#0" to="-43634353#1"/>
    <trip id="veh797" type="veh_passenger" depart="700.11" departLane="best" from="71166883#2" to="527959526"/>
    <trip id="veh800" type="veh_passenger" depart="702.74" departLane="best" from="7523039#1" to="202835410#1"/>
    <trip id="veh804" type="veh_passenger" depart="706.25" departLane="best" from="339182298#1" to="7515441#1"/>
    <trip id="veh808" type="veh_passenger" depart="709.77" departLane="best" from="49076563#3" to="7526886#3"/>
    <trip id="veh813" type="veh_passenger" depart="714.16" departLane="best" from="7525601" to="-7523025"/>
    <trip id="veh814" type="veh_passenger" depart="715.04" departLane="best" from="7515403#4" to="-292763617#0"/>
    <trip id="veh817" type="veh_passenger" depart="717.67" departLane="best" from="-7523057#2" to="7522805#5"/>
    <trip id="veh819" type="veh_passenger" depart="719.43" departLane="best" from="7525972" to="7525834"/>
    <trip id="veh826" type="veh_passenger" depart="725.58" departLane="best" from="7523214" to="7523013#0"/>
    <trip id="veh827" type="veh_passenger" depart="726.46" departLane="best" from="7514956#1" to="7522825"/>
    <trip id="veh828" type="veh_passenger" depart="727.34" departLane="best" departSpeed="max" from="71821118" to="-7525747#1"/>
    <trip id="veh829" type="veh_passenger" depart="728.22" departLane="best" from="130209605#6" to="61913620"/>
    <trip id="veh830" type="veh_passenger" depart="729.09" departLane="best" from="-7526848" to="7526896#1"/>
    <trip id="veh836" type="veh_passenger" depart="734.36" departLane="best" from="7526955#4" to="7523399#5"/>
    <trip id="veh838" type="veh_passenger" depart="736.12" departLane="best" from="165724848" to="181070185#10"/>
    <trip id="veh839" type="veh_passenger" depart="737.00" departLane="best" from="7522868" to="315069728"/>
    <trip id="veh843" type="veh_passenger" depart="740.51" departLane="best" from="7515489#2" to="-7522871#0"/>
    <trip id="veh851" type="veh_passenger" depart="747.54" departLane="best" departSpeed="max" from="447026598#0" to="7526742"/>
    <trip id="veh853" type="veh_passenger" depart="749.30" departLane="best" from="-7525822#1" to="7526882"/>
    <trip id="veh854" type="veh_passenger" depart="750.18" departLane="best" from="272688314#1" to="7515100#4"/>
    <trip id="veh856" type="veh_passenger" depart="751.93" departLane="best" from="66164435" to="538581304"/>
    <trip id="veh865" type="veh_passenger" depart="759.84" departLane="best" from="-7515100#5" to="7526981"/>
    <trip id="veh867" type="veh_passenger" depart="761.60" departLane="best" from="538581303" to="504542521#0"/>
    <trip id="veh869" type="veh_passenger" depart="763.35" departLane="best" from="49076528#1" to="-7525747#3"/>
    <trip id="veh878" type="veh_passenger" depart="771.26" departLane="best" from="-7525593#1" to="-7522949"/>
    <trip id="veh885" type="veh_passenger" depart="777.41" departLane="best" departSpeed="max" from="-7522359" to="255337390#0"/>
    <trip id="veh886" type="veh_passenger" depart="778.29" departLane="best" departSpeed="max" from="447026598#0" to="509256251#0"/>
    <trip id="veh888" type="veh_passenger" depart="780.04" departLane="best" from="255337390#1" to="-7515364#0"/>
    <trip id="veh891" type="veh_passenger" depart="782.68" departLane="best" from="-7522949" to="-7523048#0"/>
    <trip id="veh893" type="veh_passenger" depart="784.43" departLane="best" departSpeed="max" from="45662382" to="60062720#3"/>
    <trip id="veh895" type="veh_passenger" depart="786.19" departLane="best" from="7515161#1" to="-7526793"/>
    <trip id="veh896" type="veh_passenger" depart="787.07" departLane="best" from="130209605#7" to="7523149#1"/>
    <trip id="veh902" type="veh_passenger" depart="792.34" departLane="best" departSpeed="max" from="-7523049#1" to="292763600#1"/>