<?xml version="1.0" encoding="UTF-8"?>
<!-- generated on 2018-11-14 15:51:00.081000 by $Id$ via randomTrips.py
  options: 
-->
<routes xmlns:xsi="http://www.w3.org/2001/XMLSchema-instance" xsi:noNamespaceSchemaLocation="http://sumo.dlr.de/xsd/routes_file.xsd">
    <vType id="veh_passenger" vClass="passenger">
    </vType>
    <trip id="veh0" depart="0.00" departLane="best" from="7494136#0" to="-150115772#2" type="veh_passenger"/>
    <trip id="veh3" depart="28.00" departLane="best" from="7496965#2" to="-7494054" type="veh_passenger"/>
    <trip id="veh4" depart="37.33" departLane="best" from="328674806#0" to="-189646381#2" type="veh_passenger"/>
    <trip id="veh5" depart="46.66" departLane="best" from="127115493" to="529621703#1" type="veh_passenger"/>
    <trip id="veh7" depart="65.32" departLane="best" from="7494143#1" to="7494007#1" type="veh_passenger"/>
    <trip id="veh8" depart="74.66" departLane="best" from="127115493" to="7494032#0" type="veh_passenger"/>
    <trip id="veh9" depart="83.99" departLane="best" from="7496908#0" to="-130153451#1" type="veh_passenger"/>
    <trip id="veh11" depart="102.65" departLane="best" from="218541220#0" to="-7494167" type="veh_passenger"/>
    <trip id="veh13" depart="121.32" departLane="best" from="7496927#3" to="7494052" type="veh_passenger"/>
    <trip id="veh14" depart="130.65" departLane="best" from="7496908#0" to="7494285#0" type="veh_passenger"/>
    <trip id="veh15" depart="139.98" departLane="best" from="7494008" to="7497077" type="veh_passenger"/>
    <trip id="veh16" depart="149.31" departLane="best" from="328674791" to="7494009" type="veh_passenger"/>
    <trip id="veh17" depart="158.65" departLane="best" from="7496927#0" to="7494108" type="veh_passenger"/>
    <trip id="veh18" depart="167.98" departLane="best" from="7496941#0" to="7494021#1" type="veh_passenger"/>
    <trip id="veh20" depart="186.64" departLane="best" from="129463771" to="189645337#1" type="veh_passenger"/>
    <trip id="veh21" depart="195.97" departLane="best" from="-7494021#4" to="150115772#4" type="veh_passenger"/>
    <trip id="veh23" depart="214.64" departLane="best" from="309499148#2" to="-7497060" type="veh_passenger"/>
    <trip id="veh25" depart="233.30" departLane="best" from="7494143#0" to="7494054" type="veh_passenger"/>
    <trip id="veh26" depart="242.64" departLane="best" from="-7496854#2" to="7494285#0" type="veh_passenger"/>
    <trip id="veh28" depart="261.30" departLane="best" from="98531328#2" to="7494127#2" type="veh_passenger"/>
    <trip id="veh29" depart="270.63" departLane="best" from="7494017#1" to="7494155" type="veh_passenger"/>
    <trip id="veh30" depart="279.96" departLane="best" from="7496927#2" to="7496234#0" type="veh_passenger"/>
    <trip id="veh31" depart="289.30" departLane="best" from="129463771" to="-189646381#3" type="veh_passenger"/>
    <trip id="veh32" depart="298.63" departLane="best" from="206556874#3" to="150115772#3" type="veh_passenger"/>
    <trip id="veh33" depart="307.96" departLane="best" from="104054486#1" to="7497026#0" type="veh_passenger"/>
    <trip id="veh34" depart="317.29" departLane="best" from="7496965#0" to="206556874#1" type="veh_passenger"/>
    <trip id="veh35" depart="326.62" departLane="best" from="7494148#0" to="309450402#0" type="veh_passenger"/>
    <trip id="veh38" depart="354.62" departLane="best" from="7494018#0" to="150115772#1" type="veh_passenger"/>
    <trip id="veh39" depart="363.95" departLane="best" from="98531331#3" to="529621703#2" type="veh_passenger"/>
    <trip id="veh42" depart="391.95" departLane="best" from="-328674819#1" to="308873075#4" type="veh_passenger"/>
    <trip id="veh43" depart="401.28" departLane="best" from="98531331#2" to="7493985#2" type="veh_passenger"/>
    <trip id="veh47" depart="438.61" departLane="best" from="445828970#0" to="7497052#1" type="veh_passenger"/>
    <trip id="veh48" depart="447.94" departLane="best" from="7496965#0" to="150115772#1" type="veh_passenger"/>
    <trip id="veh50" depart="466.61" departLane="best" from="7496986#1" to="7496896#3" type="veh_passenger"/>
    <trip id="veh51" depart="475.94" departLane="best" from="189645337#0" to="7494127#1" type="veh_passenger"/>
    <trip id="veh52" depart="485.27" departLane="best" from="7496854#0" to="7494005#1" type="veh_passenger"/>
    <trip id="veh54" depart="503.93" departLane="best" from="-127115493" to="206556875#2" type="veh_passenger"/>
    <trip id="veh55" depart="513.27" departLane="best" from="189646381#4" to="-7494009" type="veh_passenger"/>
    <trip id="veh58" depart="541.26" departLane="best" from="-328674819#1" to="7494304#4" type="veh_passenger"/>
    <trip id="veh59" depart="550.60" departLane="best" from="7496854#1" to="-7494143#0" type="veh_passenger"/>
    <trip id="veh61" depart="569.26" departLane="best" from="328674806#0" to="-7497060" type="veh_passenger"/>
    <trip id="veh62" depart="578.59" departLane="best" from="7494008" to="7494285#0" type="veh_passenger"/>
    <trip id="veh63" depart="587.92" departLane="best" from="-7496986#0" to="189646381#5" type="veh_passenger"/>
    <trip id="veh64" depart="597.26" departLane="best" from="98531331#2" to="7494129#5" type="veh_passenger"/>
    <trip id="veh65" depart="606.59" departLane="best" from="328674809#2" to="529621703#6" type="veh_passenger"/>
    <trip id="veh67" depart="625.25" departLane="best" from="-328674819#1" to="7494121#1" type="veh_passenger"/>
    <trip id="veh69" depart="643.92" departLane="best" from="7496941#0" to="-7494021#1" type="veh_passenger"/>
    <trip id="veh70" depart="653.25" departLane="best" from="139728276#0" to="7494143#0" type="veh_passenger"/>
    <trip id="veh71" depart="662.58" departLane="best" from="104054486#2" to="-7494148#0" type="veh_passenger"/>
    <trip id="veh72" depart="671.91" departLane="best" from="7497026#1" to="7494019" type="veh_passenger"/>
    <trip id="veh75" depart="699.91" departLane="best" from="7494304#7" to="7494143#1" type="veh_passenger"/>
    <trip id="veh76" depart="709.24" departLane="best" from="98531328#0" to="-7494127#1" type="veh_passenger"/>
    <trip id="veh77" depart="718.57" departLane="best" from="328674800" to="218541215" type="veh_passenger"/>
    <trip id="veh78" depart="727.91" departLane="best" from="7496941#0" to="139728278#2" type="veh_passenger"/>
    <trip id="veh80" depart="746.57" departLane="best" from="328674806#0" to="150115772#4" type="veh_passenger"/>
    <trip id="veh81" depart="755.90" departLane="best" from="139728280#0" to="7496969#0" type="veh_passenger"/>
    <trip id="veh82" depart="765.23" departLane="best" from="328674816" to="7496896#2" type="veh_passenger"/>
    <trip id="veh85" depart="793.23" departLane="best" from="7497060" to="7496969#0" type="veh_passenger"/>
    <trip id="veh86" depart="802.56" departLane="best" from="7493985#0" to="-7497060" type="veh_passenger"/>
    <trip id="veh87" depart="811.90" departLane="best" from="328674800" to="-7494009" type="veh_passenger"/>
    <trip id="veh88" depart="821.23" departLane="best" from="328674791" to="98531328#1" type="veh_passenger"/>
    <trip id="veh91" depart="849.22" departLane="best" from="7494015" to="7494231#6" type="veh_passenger"/>
    <trip id="veh92" depart="858.56" departLane="best" from="-7494148#3" to="189646381#3" type="veh_passenger"/>
    <trip id="veh93" depart="867.89" departLane="best" from="7497060" to="7494021#2" type="veh_passenger"/>
    <trip id="veh94" depart="877.22" departLane="best" from="-309499148#3" to="7494021#4" type="veh_passenger"/>
    <trip id="veh96" depart="895.88" departLane="best" from="-7494165" to="7497053" type="veh_passenger"/>
    <trip id="veh99" depart="923.88" departLane="best" from="7496965#1" to="139728278#2" type="veh_passenger"/>
    <trip id="veh100" depart="933.21" departLane="best" from="7494005#0" to="7496986#1" type="veh_passenger"/>
    <trip id="veh101" depart="942.54" departLane="best" from="-7496986#1" to="7494231#6" type="veh_passenger"/>
    <trip id="veh103" depart="961.21" departLane="best" from="7494154#0" to="189646381#5" type="veh_passenger"/>
    <trip id="veh104" depart="970.54" departLane="best" from="206556874#3" to="7494304#1" type="veh_passenger"/>
    <trip id="veh105" depart="979.87" departLane="best" from="-328674819#1" to="328674806#0" type="veh_passenger"/>
    <trip id="veh106" depart="989.21" departLane="best" from="-328674819#1" to="-7497060" type="veh_passenger"/>
    <trip id="veh107" depart="998.54" departLane="best" from="7496965#0" to="7496908#0" type="veh_passenger"/>
    <trip id="veh108" depart="1007.87" departLane="best" from="309499148#2" to="-7494167" type="veh_passenger"/>
    <trip id="veh109" depart="1017.20" departLane="best" from="7496927#0" to="7494231#4" type="veh_passenger"/>
    <trip id="veh110" depart="1026.53" departLane="best" from="7494148#0" to="-130153451#1" type="veh_passenger"/>
    <trip id="veh111" depart="1035.87" departLane="best" from="7496921#0" to="189646381#4" type="veh_passenger"/>
    <trip id="veh112" depart="1045.20" departLane="best" from="7494148#0" to="7496991#1" type="veh_passenger"/>
    <trip id="veh113" depart="1054.53" departLane="best" from="-7494129#6" to="-7494133" type="veh_passenger"/>
    <trip id="veh115" depart="1073.19" departLane="best" from="7494304#2" to="-7497060" type="veh_passenger"/>
    <trip id="veh116" depart="1082.53" departLane="best" from="7494129#6" to="150115772#1" type="veh_passenger"/>
    <trip id="veh118" depart="1101.19" departLane="best" from="7496927#3" to="-7494121#1" type="veh_passenger"/>
    <trip id="veh119" depart="1110.52" departLane="best" from="328674806#0" to="150115772#4" type="veh_passenger"/>
    <trip id="veh120" depart="1119.86" departLane="best" from="-130153451#0" to="7494304#8" type="veh_passenger"/>
    <trip id="veh122" depart="1138.52" departLane="best" from="328674807#0" to="-150115772#0" type="veh_passenger"/>
    <trip id="veh123" depart="1147.85" departLane="best" from="-328674819#1" to="7496921#1" type="veh_passenger"/>
    <trip id="veh124" depart="1157.18" departLane="best" from="7496980" to="7494007#2" type="veh_passenger"/>
    <trip id="veh125" depart="1166.52" departLane="best" from="7496927#0" to="7494021#3" type="veh_passenger"/>
    <trip id="veh126" depart="1175.85" departLane="best" from="189646381#4" to="7496931#2" type="veh_passenger"/>
    <trip id="veh127" depart="1185.18" departLane="best" from="7496890#1" to="7496896#1" type="veh_passenger"/>
    <trip id="veh128" depart="1194.51" departLane="best" from="7496980" to="-7497060" type="veh_passenger"/>
    <trip id="veh129" depart="1203.84" departLane="best" from="139728280#0" to="-7494127#3" type="veh_passenger"/>
    <trip id="veh131" depart="1222.51" departLane="best" from="328674801#2" to="7494109#0" type="veh_passenger"/>
    <trip id="veh132" depart="1231.84" departLane="best" from="-7494148#3" to="7496969#0" type="veh_passenger"/>
    <trip id="veh133" depart="1241.17" departLane="best" from="7496941#0" to="7497078#1" type="veh_passenger"/>
    <trip id="veh135" depart="1259.84" departLane="best" from="206556875#1" to="7496986#0" type="veh_passenger"/>
    <trip id="veh136" depart="1269.17" departLane="best" from="7496896#1" to="7496896#3" type="veh_passenger"/>
    <trip id="veh137" depart="1278.50" departLane="best" from="7496908#1" to="150115772#2" type="veh_passenger"/>
    <trip id="veh138" depart="1287.83" departLane="best" from="7496890#0" to="-7494129#4" type="veh_passenger"/>
    <trip id="veh139" depart="1297.17" departLane="best" from="7496941#1" to="7496896#1" type="veh_passenger"/>
    <trip id="veh140" depart="1306.50" departLane="best" from="129463771" to="7496854#0" type="veh_passenger"/>
    <trip id="veh141" depart="1315.83" departLane="best" from="47836820#0" to="189646381#5" type="veh_passenger"/>
    <trip id="veh143" depart="1334.49" departLane="best" from="206556875#1" to="7496896#3" type="veh_passenger"/>
    <trip id="veh144" depart="1343.83" departLane="best" from="7497060" to="150115772#4" type="veh_passenger"/>
    <trip id="veh146" depart="1362.49" departLane="best" from="7497078#2" to="7494005#0" type="veh_passenger"/>
    <trip id="veh147" depart="1371.82" departLane="best" from="7497060" to="150115772#2" type="veh_passenger"/>
    <trip id="veh149" depart="1390.49" departLane="best" from="7494304#7" to="206556874#1" type="veh_passenger"/>
    <trip id="veh150" depart="1399.82" departLane="best" from="7494109#1" to="529621703#3" type="veh_passenger"/>
    <trip id="veh151" depart="1409.15" departLane="best" from="328674794" to="7494021#1" type="veh_passenger"/>
    <trip id="veh152" depart="1418.48" departLane="best" from="139728280#0" to="7494231#6" type="veh_passenger"/>
    <trip id="veh153" depart="1427.82" departLane="best" from="-127115493" to="7496969#0" type="veh_passenger"/>
    <trip id="veh154" depart="1437.15" departLane="best" from="7494008" to="7494231#6" type="veh_passenger"/>
    <trip id="veh155" depart="1446.48" departLane="best" from="7496234#5" to="7494143#0" type="veh_passenger"/>
    <trip id="veh156" depart="1455.81" departLane="best" from="309499148#0" to="-7494021#1" type="veh_passenger"/>
    <trip id="veh157" depart="1465.14" departLane="best" from="7494148#0" to="206556875#4" type="veh_passenger"/>
    <trip id="veh158" depart="1474.48" departLane="best" from="206556874#2" to="7496884#1" type="veh_passenger"/>
    <trip id="veh159" depart="1483.81" departLane="best" from="7494304#3" to="189646381#5" type="veh_passenger"/>
    <trip id="veh161" depart="1502.47" departLane="best" from="328674800" to="189646381#3" type="veh_passenger"/>
    <trip id="veh164" depart="1530.47" departLane="best" from="7496980" to="7494104#2" type="veh_passenger"/>
    <trip id="veh165" depart="1539.80" departLane="best" from="-127115493" to="189645337#0" type="veh_passenger"/>
    <trip id="veh166" depart="1549.13" departLane="best" from="328674808#0" to="7494021#2" type="veh_passenger"/>
    <trip id="veh167" depart="1558.47" departLane="best" from="7494148#0" to="328674807#0" type="veh_passenger"/>
    <trip id="veh168" depart="1567.80" departLane="best" from="328674816" to="-7497060" type="veh_passenger"/>
    <trip id="veh169" depart="1577.13" departLane="best" from="529621703#3" to="7496932" type="veh_passenger"/>
    <trip id="veh170" depart="1586.46" departLane="best" from="7496921#0" to="7494295#5" type="veh_passenger"/>
    <trip id="veh172" depart="1605.13" departLane="best" from="7496931#0" to="-7494021#2" type="veh_passenger"/>
    <trip id="veh173" depart="1614.46" departLane="best" from="328674803#0" to="7494121#0" type="veh_passenger"/>
    <trip id="veh175" depart="1633.12" departLane="best" from="7493992#2" to="139728278#2" type="veh_passenger"/>
    <trip id="veh176" depart="1642.45" departLane="best" from="7494148#0" to="-130153451#1" type="veh_passenger"/>
    <trip id="veh178" depart="1661.12" departLane="best" from="-7496855#1" to="7497052#3" type="veh_passenger"/>
    <trip id="veh180" depart="1679.78" departLane="best" from="139728280#0" to="7496884#1" type="veh_passenger"/>
    <trip id="veh181" depart="1689.12" departLane="best" from="457658286" to="7496234#9" type="veh_passenger"/>
    <trip id="veh182" depart="1698.45" departLane="best" from="7494148#3" to="98531328#2" type="veh_passenger"/>
    <trip id="veh183" depart="1707.78" departLane="best" from="7496965#2" to="7494104#1" type="veh_passenger"/>
    <trip id="veh184" depart="1717.11" departLane="best" from="7494304#3" to="529621703#0" type="veh_passenger"/>
    <trip id="veh185" depart="1726.44" departLane="best" from="7496927#0" to="7494007#2" type="veh_passenger"/>
    <trip id="veh186" depart="1735.78" departLane="best" from="7496980" to="7494295#3" type="veh_passenger"/>
    <trip id="veh188" depart="1754.44" departLane="best" from="139728280#0" to="7494127#1" type="veh_passenger"/>
    <trip id="veh189" depart="1763.77" departLane="best" from="7496854#1" to="7493966#0" type="veh_passenger"/>
    <trip id="veh190" depart="1773.10" departLane="best" from="7494129#3" to="150115772#4" type="veh_passenger"/>
    <trip id="veh192" depart="1791.77" departLane="best" from="129463771" to="7494167" type="veh_passenger"/>
    <trip id="veh193" depart="1801.10" departLane="best" from="328674801#2" to="7494005#2" type="veh_passenger"/>
    <trip id="veh194" depart="1810.43" departLane="best" from="328674803#0" to="-7497060" type="veh_passenger"/>
    <trip id="veh196" depart="1829.10" departLane="best" from="7494032#0" to="7494194" type="veh_passenger"/>
    <trip id="veh197" depart="1838.43" departLane="best" from="7496932" to="7494304#6" type="veh_passenger"/>
    <trip id="veh198" depart="1847.76" departLane="best" from="328674791" to="-130153451#1" type="veh_passenger"/>
    <trip id="veh199" depart="1857.09" departLane="best" from="290226822" to="7494304#1" type="veh_passenger"/>
    <trip id="veh200" depart="1866.43" departLane="best" from="328674805#0" to="7494295#4" type="veh_passenger"/>
    <trip id="veh201" depart="1875.76" departLane="best" from="7494008" to="7494052" type="veh_passenger"/>
    <trip id="veh203" depart="1894.42" departLane="best" from="328674809#0" to="-150115772#3" type="veh_passenger"/>
    <trip id="veh205" depart="1913.09" departLane="best" from="328674800" to="-7496854#1" type="veh_passenger"/>
    <trip id="veh206" depart="1922.42" departLane="best" from="529621703#1" to="-7494137#1" type="veh_passenger"/>
    <trip id="veh207" depart="1931.75" departLane="best" from="7494127#3" to="-150115772#3" type="veh_passenger"/>
    <trip id="veh208" depart="1941.08" departLane="best" from="328674800" to="7494018#0" type="veh_passenger"/>
    <trip id="veh211" depart="1969.08" departLane="best" from="104054486#1" to="206556875#3" type="veh_passenger"/>
    <trip id="veh213" depart="1987.74" departLane="best" from="139728280#0" to="-7494021#5" type="veh_passenger"/>
    <trip id="veh215" depart="2006.41" departLane="best" from="98531331#3" to="218541220#1" type="veh_passenger"/>
    <trip id="veh216" depart="2015.74" departLane="best" from="7494143#1" to="7496234#5" type="veh_passenger"/>
    <trip id="veh219" depart="2043.74" departLane="best" from="-7494129#3" to="7494143#0" type="veh_passenger"/>
    <trip id="veh220" depart="2053.07" departLane="best" from="7494018#1" to="-7497077" type="veh_passenger"/>
    <trip id="veh221" depart="2062.40" departLane="best" from="-7496854#1" to="7494054" type="veh_passenger"/>
    <trip id="veh223" depart="2081.06" departLane="best" from="7496921#0" to="7497054#0" type="veh_passenger"/>
    <trip id="veh224" depart="2090.40" departLane="best" from="-7494054" to="-150115772#2" type="veh_passenger"/>
    <trip id="veh227" depart="2118.39" departLane="best" from="7494231#3" to="7494109#2" type="veh_passenger"/>
    <trip id="veh228" depart="2127.73" departLane="best" from="7496931#1" to="7494052" type="veh_passenger"/>
    <trip id="veh229" depart="2137.06" departLane="best" from="-7494127#2" to="98531328#0" type="veh_passenger"/>
    <trip id="veh230" depart="2146.39" departLane="best" from="7496890#0" to="218541220#0" type="veh_passenger"/>
    <trip id="veh231" depart="2155.72" departLane="best" from="328674807#0" to="290226822" type="veh_passenger"/>
    <trip id="veh233" depart="2174.39" departLane="best" from="-7494028#1" to="7497053" type="veh_passenger"/>
    <trip id="veh236" depart="2202.38" departLane="best" from="7494304#9" to="7497054#1" type="veh_passenger"/>
    <trip id="veh239" depart="2230.38" departLane="best" from="328674809#0" to="7494285#0" type="veh_passenger"/>
    <trip id="veh241" depart="2249.04" departLane="best" from="7496927#0" to="-7494054" type="veh_passenger"/>
    <trip id="veh242" depart="2258.37" departLane="best" from="7496965#0" to="139728278#2" type="veh_passenger"/>
    <trip id="veh243" depart="2267.71" departLane="best" from="529621703#0" to="7494104#0" type="veh_passenger"/>
    <trip id="veh244" depart="2277.04" departLane="best" from="328674791" to="-150115772#3" type="veh_passenger"/>
    <trip id="veh245" depart="2286.37" departLane="best" from="7496931#1" to="-7496908#1" type="veh_passenger"/>
    <trip id="veh246" depart="2295.70" departLane="best" from="104054486#1" to="7496234#9" type="veh_passenger"/>
    <trip id="veh247" depart="2305.04" departLane="best" from="218541220#0" to="7496908#1" type="veh_passenger"/>
    <trip id="veh248" depart="2314.37" departLane="best" from="7494295#1" to="150115772#4" type="veh_passenger"/>
    <trip id="veh250" depart="2333.03" departLane="best" from="-7494017#1" to="7494231#6" type="veh_passenger"/>
    <trip id="veh251" depart="2342.36" departLane="best" from="7493985#2" to="7494304#3" type="veh_passenger"/>
    <trip id="veh253" depart="2361.03" departLane="best" from="7494231#3" to="189646381#5" type="veh_passenger"/>
    <trip id="veh256" depart="2389.02" departLane="best" from="7494295#1" to="150115772#4" type="veh_passenger"/>
    <trip id="veh257" depart="2398.36" departLane="best" from="139728280#0" to="-7494136#1" type="veh_passenger"/>
    <trip id="veh259" depart="2417.02" departLane="best" from="-7496855#2" to="-7497060" type="veh_passenger"/>
    <trip id="veh260" depart="2426.35" departLane="best" from="7493966#1" to="7494285#0" type="veh_passenger"/>
    <trip id="veh261" depart="2435.69" departLane="best" from="7497078#0" to="7493985#0" type="veh_passenger"/>
    <trip id="veh264" depart="2463.68" departLane="best" from="-7496855#2" to="-150115772#0" type="veh_passenger"/>
    <trip id="veh265" depart="2473.01" departLane="best" from="7494007#3" to="150115772#4" type="veh_passenger"/>
    <trip id="veh266" depart="2482.35" departLane="best" from="7497077" to="7494009" type="veh_passenger"/>
    <trip id="veh269" depart="2510.34" departLane="best" from="7496941#1" to="7494021#0" type="veh_passenger"/>
    <trip id="veh274" depart="2557.00" departLane="best" from="-328674819#1" to="7494121#0" type="veh_passenger"/>
    <trip id="veh275" depart="2566.34" departLane="best" from="-309499148#2" to="-7494148#3" type="veh_passenger"/>
    <trip id="veh276" depart="2575.67" departLane="best" from="7494018#0" to="189646381#5" type="veh_passenger"/>
    <trip id="veh277" depart="2585.00" departLane="best" from="98531331#1" to="-7494136#0" type="veh_passenger"/>
    <trip id="veh278" depart="2594.33" departLane="best" from="7496854#1" to="7494052" type="veh_passenger"/>
    <trip id="veh281" depart="2622.33" departLane="best" from="328674816" to="7496896#1" type="veh_passenger"/>
    <trip id="veh282" depart="2631.66" departLane="best" from="98531331#0" to="189646381#5" type="veh_passenger"/>
    <trip id="veh284" depart="2650.32" departLane="best" from="-7497077" to="-7497060" type="veh_passenger"/>
    <trip id="veh285" depart="2659.66" departLane="best" from="7494148#0" to="-7494167" type="veh_passenger"/>
    <trip id="veh286" depart="2668.99" departLane="best" from="-7496855#0" to="-7494021#3" type="veh_passenger"/>
    <trip id="veh288" depart="2687.65" departLane="best" from="129463771" to="7494231#5" type="veh_passenger"/>
    <trip id="veh290" depart="2706.32" departLane="best" from="7494194" to="7496969#0" type="veh_passenger"/>
    <trip id="veh291" depart="2715.65" departLane="best" from="7496890#0" to="7494109#1" type="veh_passenger"/>
    <trip id="veh292" depart="2724.98" departLane="best" from="7494148#0" to="7496986#1" type="veh_passenger"/>
    <trip id="veh293" depart="2734.31" departLane="best" from="328674806#2" to="7494007#1" type="veh_passenger"/>
    <trip id="veh294" depart="2743.65" departLane="best" from="7494143#0" to="7496961" type="veh_passenger"/>
    <trip id="veh295" depart="2752.98" departLane="best" from="7496921#1" to="-7494021#1" type="veh_passenger"/>
    <trip id="veh296" depart="2762.31" departLane="best" from="-7496854#0" to="189646381#5" type="veh_passenger"/>
    <trip id="veh299" depart="2790.31" departLane="best" from="7493992#2" to="-7494021#5" type="veh_passenger"/>
    <trip id="veh301" depart="2808.97" departLane="best" from="206556875#1" to="139728278#2" type="veh_passenger"/>
    <trip id="veh302" depart="2818.30" departLane="best" from="-7494021#0" to="7497053" type="veh_passenger"/>
    <trip id="veh303" depart="2827.63" departLane="best" from="7496927#0" to="7494021#1" type="veh_passenger"/>
    <trip id="veh305" depart="2846.30" departLane="best" from="7494154#0" to="150115772#3" type="veh_passenger"/>
    <trip id="veh306" depart="2855.63" departLane="best" from="-189646381#5" to="7494304#2" type="veh_passenger"/>
    <trip id="veh307" depart="2864.96" departLane="best" from="529621703#2" to="7494129#5" type="veh_passenger"/>
    <trip id="veh308" depart="2874.30" departLane="best" from="7496991#0" to="-7496908#0" type="veh_passenger"/>
    <trip id="veh309" depart="2883.63" departLane="best" from="7493992#0" to="-7494121#1" type="veh_passenger"/>
    <trip id="veh310" depart="2892.96" departLane="best" from="270143191" to="218541215" type="veh_passenger"/>
    <trip id="veh311" depart="2902.29" departLane="best" from="7494154#0" to="7496896#0" type="veh_passenger"/>
    <trip id="veh312" depart="2911.62" departLane="best" from="206556875#1" to="7494167" type="veh_passenger"/>
    <trip id="veh314" depart="2930.29" departLane="best" from="7496921#0" to="7494007#3" type="veh_passenger"/>
    <trip id="veh315" depart="2939.62" departLane="best" from="457658286" to="206556874#1" type="veh_passenger"/>
    <trip id="veh316" depart="2948.95" departLane="best" from="206556875#1" to="7497054#2" type="veh_passenger"/>
    <trip id="veh317" depart="2958.28" departLane="best" from="328674800" to="529621703#4" type="veh_passenger"/>
    <trip id="veh321" depart="2995.61" departLane="best" from="7496849" to="-7497060" type="veh_passenger"/>
    <trip id="veh322" depart="3004.95" departLane="best" from="7494009" to="7496969#0" type="veh_passenger"/>
    <trip id="veh323" depart="3014.28" departLane="best" from="328674809#2" to="7494196" type="veh_passenger"/>
    <trip id="veh324" depart="3023.61" departLane="best" from="-7494127#2" to="7497077" type="veh_passenger"/>
    <trip id="veh326" depart="3042.27" departLane="best" from="47836820#0" to="-7494133" type="veh_passenger"/>
    <trip id="veh328" depart="3060.94" departLane="best" from="7494304#2" to="529621703#2" type="veh_passenger"/>
    <trip id="veh330" depart="3079.60" departLane="best" from="7497078#2" to="139728278#2" type="veh_passenger"/>
    <trip id="veh332" depart="3098.27" departLane="best" from="7496992#0" to="529621703#2" type="veh_passenger"/>
    <trip id="veh333" depart="3107.60" departLane="best" from="7496965#0" to="7496896#3" type="veh_passenger"/>
    <trip id="veh335" depart="3126.26" departLane="best" from="328674803#0" to="7496986#1" type="veh_passenger"/>
    <trip id="veh338" depart="3154.26" departLane="best" from="7494032#2" to="98531331#3" type="veh_passenger"/>
    <trip id="veh340" depart="3172.92" departLane="best" from="7494008" to="218541220#0" type="veh_passenger"/>
    <trip id="veh341" depart="3182.26" departLane="best" from="7494011" to="7494007#1" type="veh_passenger"/>
    <trip id="veh342" depart="3191.59" departLane="best" from="457658286" to="206556874#4" type="veh_passenger"/>
    <trip id="veh343" depart="3200.92" departLane="best" from="-7496855#2" to="7494194" type="veh_passenger"/>
    <trip id="veh344" depart="3210.25" departLane="best" from="7494021#1" to="130153451#1" type="veh_passenger"/>
    <trip id="veh347" depart="3238.25" departLane="best" from="7494148#0" to="7496854#1" type="veh_passenger"/>
    <trip id="veh348" depart="3247.58" departLane="best" from="7497078#2" to="457658288#1" type="veh_passenger"/>
    <trip id="veh350" depart="3266.24" departLane="best" from="7494054" to="7496896#3" type="veh_passenger"/>
    <trip id="veh354" depart="3303.57" departLane="best" from="7494148#0" to="-7494165" type="veh_passenger"/>
    <trip id="veh355" depart="3312.91" departLane="best" from="529621703#1" to="7497054#2" type="veh_passenger"/>
    <trip id="veh356" depart="3322.24" departLane="best" from="206556875#4" to="7494167" type="veh_passenger"/>
    <trip id="veh358" depart="3340.90" departLane="best" from="7496931#1" to="7496896#1" type="veh_passenger"/>
    <trip id="veh359" depart="3350.23" departLane="best" from="328674791" to="206556874#2" type="veh_passenger"/>
    <trip id="veh360" depart="3359.57" departLane="best" from="7496941#1" to="-189646381#4" type="veh_passenger"/>
    <trip id="veh361" depart="3368.90" departLane="best" from="-328674819#1" to="7494121#1" type="veh_passenger"/>
    <trip id="veh362" depart="3378.23" departLane="best" from="7496992#0" to="98531331#3" type="veh_passenger"/>
    <trip id="veh367" depart="3424.89" departLane="best" from="-7494137#1" to="7493992#0" type="veh_passenger"/>
    <trip id="veh368" depart="3434.22" departLane="best" from="7494018#1" to="7496234#9" type="veh_passenger"/>
    <trip id="veh369" depart="3443.56" departLane="best" from="-7496854#1" to="-7494021#4" type="veh_passenger"/>
    <trip id="veh370" depart="3452.89" departLane="best" from="7496941#1" to="7494108" type="veh_passenger"/>
    <trip id="veh378" depart="3527.54" departLane="best" from="139728280#0" to="7496884#0" type="veh_passenger"/>
    <trip id="veh380" depart="3546.21" departLane="best" from="7493966#1" to="139728276#0" type="veh_passenger"/>
    <trip id="veh381" depart="3555.54" departLane="best" from="98531331#1" to="189646381#3" type="veh_passenger"/>
    <trip id="veh382" depart="3564.87" departLane="best" from="7497078#1" to="7494136#0" type="veh_passenger"/>
    <trip id="veh384" depart="3583.54" departLane="best" from="-309499148#0" to="7494052" type="veh_passenger"/>
</routes>
