<?xml version="1.0" encoding="UTF-8"?>

<!-- generated on 11/15/18 11:05:34 by Eclipse SUMO netedit Version v1_0_1+0176-65b48fbf1c
<configuration xmlns:xsi="http://www.w3.org/2001/XMLSchema-instance" xsi:noNamespaceSchemaLocation="http://sumo.dlr.de/xsd/netconvertConfiguration.xsd">

    <input>
        <sumo-net-file value="osm.net.xml"/>
    </input>

    <output>
        <output-file value="osm.net.xml"/>
        <output.street-names value="true"/>
    </output>

    <processing>
        <offset.disable-normalization value="true"/>
        <lefthand value="false"/>
    </processing>

    <junctions>
        <no-internal-links value="false"/>
        <no-turnarounds value="true"/>
        <junctions.corner-detail value="5"/>
        <junctions.limit-turn-speed value="5.5"/>
        <rectangular-lane-cut value="false"/>
    </junctions>

    <pedestrian>
        <walkingareas value="true"/>
    </pedestrian>

    <visualisation>
        <registry-viewport value="true"/>
    </visualisation>

</configuration>
-->

<net version="1.0" junctionCornerDetail="5" walkingareas="true" limitTurnSpeed="5.50" xmlns:xsi="http://www.w3.org/2001/XMLSchema-instance" xsi:noNamespaceSchemaLocation="http://sumo.dlr.de/xsd/net_file.xsd">

    <location netOffset="-586808.44,-5770207.67" convBoundary="0.00,0.00,1626.13,3316.56" origBoundary="4.267099,52.075379,4.290380,52.105410" projParameter="+proj=utm +zone=31 +ellps=WGS84 +datum=WGS84 +units=m +no_defs"/>

    <type id="cycleway.lane" allow="bicycle" bikeLaneWidth="1.00"/>
    <type id="cycleway.lane|highway.residential" priority="4" numLanes="1" speed="13.89" disallow="tram rail_urban rail rail_electric pedestrian ship" oneway="0" sidewalkWidth="2.00" bikeLaneWidth="1.00"/>
    <type id="cycleway.lane|highway.tertiary" priority="6" numLanes="1" speed="13.89" disallow="tram rail_urban rail rail_electric pedestrian ship" oneway="0" sidewalkWidth="3.00" bikeLaneWidth="1.00"/>
    <type id="cycleway.opposite_lane" allow="bicycle" bikeLaneWidth="1.00"/>
    <type id="cycleway.opposite_track" allow="bicycle" bikeLaneWidth="1.50"/>
    <type id="cycleway.track" allow="bicycle" bikeLaneWidth="1.50"/>
    <type id="highway.bridleway" priority="1" numLanes="1" speed="2.78" allow="pedestrian" oneway="1" width="2.00"/>
    <type id="highway.bus_guideway" priority="1" numLanes="1" speed="13.89" allow="bus" oneway="1"/>
    <type id="highway.cycleway" priority="1" numLanes="1" speed="8.33" allow="bicycle" oneway="0" width="1.00"/>
    <type id="highway.footway" priority="1" numLanes="1" speed="2.78" allow="pedestrian" oneway="1" width="2.00"/>
    <type id="highway.ford" priority="1" numLanes="1" speed="2.78" allow="army" oneway="0"/>
    <type id="highway.living_street" priority="3" numLanes="1" speed="2.78" disallow="tram rail_urban rail rail_electric ship" oneway="0"/>
    <type id="highway.motorway" priority="13" numLanes="2" speed="27.78" allow="private emergency authority army vip passenger hov taxi bus coach delivery truck trailer motorcycle evehicle custom1 custom2" oneway="1"/>
    <type id="highway.motorway_link" priority="12" numLanes="1" speed="16.67" allow="private emergency authority army vip passenger hov taxi bus coach delivery truck trailer motorcycle evehicle custom1 custom2" oneway="1"/>
    <type id="highway.path" priority="1" numLanes="1" speed="2.78" allow="bicycle pedestrian" oneway="1" width="2.00"/>
    <type id="highway.pedestrian" priority="1" numLanes="1" speed="2.78" allow="pedestrian" oneway="1" width="2.00"/>
    <type id="highway.primary" priority="9" numLanes="2" speed="13.89" disallow="tram rail_urban rail rail_electric pedestrian ship" oneway="0" sidewalkWidth="3.00"/>
    <type id="highway.primary_link" priority="8" numLanes="1" speed="13.89" disallow="tram rail_urban rail rail_electric pedestrian ship" oneway="0" sidewalkWidth="3.00"/>
    <type id="highway.raceway" priority="14" numLanes="2" speed="83.33" allow="vip" oneway="0"/>
    <type id="highway.residential" priority="4" numLanes="1" speed="13.89" disallow="tram rail_urban rail rail_electric pedestrian ship" oneway="0" sidewalkWidth="2.00"/>
    <type id="highway.residential|railway.tram" priority="15" numLanes="1" speed="13.89" disallow="rail_urban rail rail_electric pedestrian ship" oneway="0" sidewalkWidth="2.00"/>
    <type id="highway.secondary" priority="7" numLanes="2" speed="13.89" disallow="tram rail_urban rail rail_electric pedestrian ship" oneway="0" sidewalkWidth="3.00"/>
    <type id="highway.secondary_link" priority="6" numLanes="1" speed="13.89" disallow="tram rail_urban rail rail_electric pedestrian ship" oneway="0" sidewalkWidth="3.00"/>
    <type id="highway.service" priority="2" numLanes="1" speed="5.56" allow="delivery bicycle pedestrian" oneway="0"/>
    <type id="highway.stairs" priority="1" numLanes="1" speed="1.39" allow="pedestrian" oneway="1" width="2.00"/>
    <type id="highway.step" priority="1" numLanes="1" speed="1.39" allow="pedestrian" oneway="1" width="2.00"/>
    <type id="highway.steps" priority="1" numLanes="1" speed="1.39" allow="pedestrian" oneway="1" width="2.00"/>
    <type id="highway.tertiary" priority="6" numLanes="1" speed="13.89" disallow="tram rail_urban rail rail_electric pedestrian ship" oneway="0" sidewalkWidth="3.00"/>
    <type id="highway.tertiary_link" priority="5" numLanes="1" speed="13.89" disallow="tram rail_urban rail rail_electric pedestrian ship" oneway="0" sidewalkWidth="2.00"/>
    <type id="highway.track" priority="1" numLanes="1" speed="5.56" disallow="tram rail_urban rail rail_electric ship" oneway="0"/>
    <type id="highway.trunk" priority="11" numLanes="2" speed="13.89" disallow="tram rail_urban rail rail_electric bicycle pedestrian ship" oneway="0"/>
    <type id="highway.trunk_link" priority="10" numLanes="1" speed="13.89" disallow="tram rail_urban rail rail_electric bicycle pedestrian ship" oneway="0"/>
    <type id="highway.unclassified" priority="5" numLanes="1" speed="13.89" disallow="tram rail_urban rail rail_electric pedestrian ship" oneway="0" sidewalkWidth="2.00"/>
    <type id="highway.unsurfaced" priority="1" numLanes="1" speed="8.33" disallow="tram rail_urban rail rail_electric ship" oneway="0"/>
    <type id="railway.light_rail" priority="15" numLanes="1" speed="27.78" allow="rail_urban" oneway="1"/>
    <type id="railway.preserved" priority="15" numLanes="1" speed="27.78" allow="rail" oneway="1"/>
    <type id="railway.rail" priority="15" numLanes="1" speed="83.33" allow="rail rail_electric" oneway="1"/>
    <type id="railway.subway" priority="15" numLanes="1" speed="27.78" allow="rail_urban" oneway="1"/>
    <type id="railway.tram" priority="15" numLanes="1" speed="13.89" allow="tram" oneway="1"/>

    <edge id=":1115227854_0" function="internal">
        <lane id=":1115227854_0_0" index="0" disallow="tram rail_urban rail rail_electric pedestrian ship" speed="13.89" length="11.82" shape="783.16,1686.82 779.94,1685.53 777.60,1685.00 775.17,1684.83 771.67,1684.58"/>
    </edge>
    <edge id=":1115227854_1" function="internal">
        <lane id=":1115227854_1_0" index="0" disallow="tram rail_urban rail rail_electric pedestrian ship" speed="5.29" length="5.26" shape="783.16,1686.82 781.87,1686.03 781.09,1685.06 780.82,1683.93 781.06,1682.61"/>
    </edge>
    <edge id=":1115227854_2" function="internal">
        <lane id=":1115227854_2_0" index="0" allow="bicycle" speed="5.46" length="3.77" width="1.00" shape="775.49,1691.90 775.87,1689.82 775.33,1688.26"/>
    </edge>
    <edge id=":1115227854_3" function="internal">
        <lane id=":1115227854_3_0" index="0" allow="bicycle" speed="13.89" length="10.62" width="1.00" shape="775.49,1691.90 779.09,1681.91"/>
    </edge>
    <edge id=":1115227854_4" function="internal">
        <lane id=":1115227854_4_0" index="0" disallow="tram rail_urban rail rail_electric pedestrian ship" speed="6.86" length="4.23" shape="777.47,1692.61 778.08,1689.41 777.79,1688.48"/>
    </edge>
    <edge id=":1115227854_5" function="internal">
        <lane id=":1115227854_5_0" index="0" disallow="tram rail_urban rail rail_electric pedestrian ship" speed="13.89" length="10.62" shape="777.47,1692.61 781.06,1682.61"/>
    </edge>
    <edge id=":1115227854_6" function="internal">
        <lane id=":1115227854_6_0" index="0" speed="5.46" length="4.26" width="1.00" shape="775.33,1688.26 773.86,1687.21 771.46,1686.67"/>
    </edge>
    <edge id=":1115227854_7" function="internal">
        <lane id=":1115227854_7_0" index="0" speed="6.86" length="7.83" shape="777.79,1688.48 777.32,1687.00 775.18,1685.39 771.67,1684.58"/>
    </edge>
    <edge id=":1115227854_c0" function="crossing" crossingEdges="7497052#0">
        <lane id=":1115227854_c0_0" index="0" allow="pedestrian" speed="1.00" length="4.20" width="4.00" shape="773.40,1687.36 773.81,1683.18"/>
    </edge>
    <edge id=":1115227854_c1" function="crossing" crossingEdges="7494295#1">
        <lane id=":1115227854_c1_0" index="0" allow="pedestrian" speed="1.00" length="4.20" width="4.00" shape="779.65,1691.27 775.70,1689.85"/>
    </edge>
    <edge id=":1115227854_w0" function="walkingarea">
        <lane id=":1115227854_w0_0" index="0" allow="pedestrian" speed="1.00" length="3.20" width="4.00" shape="778.98,1693.15 781.66,1690.10 782.49,1688.28 781.98,1688.22 781.43,1688.51 780.86,1689.15 780.26,1690.14 779.63,1691.47"/>
    </edge>
    <edge id=":1115227854_w1" function="walkingarea">
        <lane id=":1115227854_w1_0" index="0" allow="pedestrian" speed="1.00" length="3.91" width="4.00" shape="778.62,1681.74 775.79,1680.73 771.82,1682.99 773.72,1683.12 775.30,1683.12 776.59,1682.98 777.57,1682.70 778.24,1682.29"/>
    </edge>
    <edge id=":1115227854_w2" function="walkingarea">
        <lane id=":1115227854_w2_0" index="0" allow="pedestrian" speed="1.00" length="3.42" width="4.00" shape="771.41,1687.17 771.22,1689.16 772.20,1690.72 775.02,1691.73 775.33,1690.48 775.27,1689.42 774.85,1688.56 774.07,1687.90 772.92,1687.43"/>
    </edge>
    <edge id=":1200701389_0" function="internal">
        <lane id=":1200701389_0_0" index="0" disallow="tram rail_urban rail rail_electric pedestrian ship" speed="4.94" length="6.05" shape="917.63,1398.23 915.65,1397.23 914.10,1396.85 912.98,1397.07 912.28,1397.90"/>
    </edge>
    <edge id=":1200701389_1" function="internal">
        <lane id=":1200701389_1_0" index="0" disallow="tram rail_urban rail rail_electric pedestrian ship" speed="13.89" length="3.55" shape="912.66,1394.21 911.27,1397.47"/>
    </edge>
    <edge id=":1200701389_c0" function="crossing" crossingEdges="104042355#8">
        <lane id=":1200701389_c0_0" index="0" allow="pedestrian" speed="1.00" length="1.00" width="4.00" shape="916.17,1396.78 915.66,1397.64"/>
    </edge>
    <edge id=":1200701389_w0" function="walkingarea">
        <lane id=":1200701389_w0_0" index="0" allow="pedestrian" speed="1.00" length="1.49" width="4.00" shape="917.89,1397.80 916.88,1396.04 914.13,1394.85 914.21,1395.35 914.73,1395.90 915.54,1396.47 916.44,1397.01 917.28,1397.46"/>
    </edge>
    <edge id=":1200701389_w1" function="walkingarea">
        <lane id=":1200701389_w1_0" index="0" allow="pedestrian" speed="1.00" length="1.86" width="4.00" shape="912.74,1398.10 915.50,1399.27 917.38,1398.66 916.17,1398.00 915.13,1397.57 914.27,1397.36 913.58,1397.38 913.07,1397.63"/>
    </edge>
    <edge id=":1200701444_0" function="internal">
        <lane id=":1200701444_0_0" index="0" allow="bicycle" speed="8.33" length="3.72" width="1.00" shape="1105.71,1522.06 1106.15,1523.07 1106.45,1523.77 1106.71,1524.48 1107.04,1525.53"/>
    </edge>
    <edge id=":1200701444_c0" function="crossing" crossingEdges="104049944">
        <lane id=":1200701444_c0_0" index="0" allow="pedestrian" speed="1.00" length="1.00" width="4.00" shape="1106.03,1524.10 1106.95,1523.70"/>
    </edge>
    <edge id=":1200701444_w0" function="walkingarea">
        <lane id=":1200701444_w0_0" index="0" allow="pedestrian" speed="1.00" length="1.60" width="4.00" shape="1108.98,1524.39 1108.11,1522.59 1106.17,1521.86 1106.49,1522.60 1106.73,1523.15 1106.92,1523.60 1107.10,1524.05 1107.28,1524.62"/>
    </edge>
    <edge id=":1200701444_w1" function="walkingarea">
        <lane id=":1200701444_w1_0" index="0" allow="pedestrian" speed="1.00" length="0.75" width="4.00" shape="1105.25,1522.26 1105.38,1523.91 1106.25,1525.71 1106.33,1524.93 1106.15,1524.38 1105.98,1523.94 1105.79,1523.50 1105.56,1522.97"/>
    </edge>
    <edge id=":1200701485_0" function="internal">
        <lane id=":1200701485_0_0" index="0" allow="bicycle" speed="3.78" length="3.22" width="1.00" shape="1114.14,1782.15 1113.82,1781.32 1113.31,1780.81 1112.61,1780.62 1111.73,1780.74"/>
    </edge>
    <edge id=":1200701485_1" function="internal">
        <lane id=":1200701485_1_0" index="0" allow="bicycle" speed="8.33" length="6.72" width="1.00" shape="1114.14,1782.15 1113.78,1780.19 1113.70,1778.83 1113.68,1777.46 1113.49,1775.47"/>
    </edge>
    <edge id=":1200701485_2" function="internal">
        <lane id=":1200701485_2_0" index="0" allow="bicycle" speed="2.04" length="1.46" width="1.00" shape="1114.14,1782.15 1114.30,1781.73 1114.51,1781.55 1114.78,1781.61 1115.11,1781.92"/>
    </edge>
    <edge id=":1200701485_3" function="internal">
        <lane id=":1200701485_3_0" index="0" allow="bicycle" speed="5.12" length="5.25" width="1.00" shape="1111.45,1779.78 1112.53,1779.23 1113.23,1778.33 1113.55,1777.08 1113.49,1775.47"/>
    </edge>
    <edge id=":1200701485_4" function="internal">
        <lane id=":1200701485_4_0" index="0" allow="bicycle" speed="4.59" length="4.90" width="1.00" shape="1111.45,1779.78 1112.79,1779.59 1113.85,1779.88 1114.62,1780.66 1115.11,1781.92"/>
    </edge>
    <edge id=":1200701485_5" function="internal">
        <lane id=":1200701485_5_0" index="0" allow="bicycle" speed="2.04" length="1.46" width="1.00" shape="1111.45,1779.78 1111.88,1779.92 1112.07,1780.12 1112.02,1780.40 1111.73,1780.74"/>
    </edge>
    <edge id=":1200701525_0" function="internal">
        <lane id=":1200701525_0_0" index="0" allow="bicycle" speed="8.33" length="4.05" width="1.00" shape="1079.42,1545.50 1079.10,1544.34 1078.91,1543.54 1078.75,1542.73 1078.55,1541.55"/>
    </edge>
    <edge id=":1200701525_1" function="internal">
        <lane id=":1200701525_1_0" index="0" allow="bicycle" speed="3.39" length="2.50" width="1.00" shape="1079.42,1545.50 1079.25,1544.63 1079.27,1543.98 1079.49,1543.54 1079.90,1543.32"/>
    </edge>
    <edge id=":1200701821_0" function="internal">
        <lane id=":1200701821_0_0" index="0" allow="delivery bicycle pedestrian" speed="3.85" length="3.22" shape="1095.22,1687.51 1094.92,1686.68 1094.42,1686.15 1093.73,1685.92 1092.85,1685.99"/>
    </edge>
    <edge id=":1200701821_1" function="internal">
        <lane id=":1200701821_1_0" index="0" allow="bicycle" speed="8.33" length="9.47" width="1.00" shape="1095.22,1687.51 1093.61,1678.18"/>
    </edge>
    <edge id=":1200701821_2" function="internal">
        <lane id=":1200701821_2_0" index="0" allow="delivery bicycle pedestrian" speed="6.08" length="8.30" shape="1095.22,1687.51 1094.68,1684.31 1094.60,1681.94 1095.00,1680.42 1095.88,1679.73"/>
    </edge>
    <edge id=":1200701821_3" function="internal">
        <lane id=":1200701821_3_0" index="0" allow="delivery bicycle pedestrian" speed="5.56" length="4.41" shape="1096.89,1683.91 1092.60,1684.92"/>
    </edge>
    <edge id=":1200701821_4" function="internal">
        <lane id=":1200701821_4_0" index="0" allow="bicycle" speed="5.34" length="1.28" width="1.00" shape="1096.63,1682.84 1095.57,1682.76 1095.41,1682.61"/>
    </edge>
    <edge id=":1200701821_5" function="internal">
        <lane id=":1200701821_5_0" index="0" allow="delivery bicycle pedestrian" speed="3.65" length="2.34" shape="1096.89,1683.91 1095.54,1683.41 1094.96,1682.73"/>
    </edge>
    <edge id=":1200701821_9" function="internal">
        <lane id=":1200701821_9_0" index="0" speed="5.34" length="4.92" width="1.00" shape="1095.41,1682.61 1094.71,1681.96 1094.06,1680.43 1093.61,1678.18"/>
    </edge>
    <edge id=":1200701821_10" function="internal">
        <lane id=":1200701821_10_0" index="0" speed="3.65" length="2.34" shape="1094.96,1682.73 1095.16,1681.86 1096.14,1680.80"/>
    </edge>
    <edge id=":1200701821_6" function="internal">
        <lane id=":1200701821_6_0" index="0" allow="bicycle" speed="4.54" length="3.59" width="1.00" shape="1091.66,1680.72 1092.61,1680.38 1093.25,1679.84 1093.59,1679.10 1093.61,1678.18"/>
    </edge>
    <edge id=":1200701821_7" function="internal">
        <lane id=":1200701821_7_0" index="0" allow="delivery bicycle pedestrian" speed="5.56" length="4.35" shape="1091.90,1681.80 1096.14,1680.80"/>
    </edge>
    <edge id=":1200701821_8" function="internal">
        <lane id=":1200701821_8_0" index="0" allow="delivery bicycle pedestrian" speed="3.65" length="2.34" shape="1091.90,1681.80 1093.24,1682.31 1093.81,1683.00"/>
    </edge>
    <edge id=":1200701821_11" function="internal">
        <lane id=":1200701821_11_0" index="0" speed="3.65" length="2.34" shape="1093.81,1683.00 1093.60,1683.87 1092.60,1684.92"/>
    </edge>
    <edge id=":1200701821_c0" function="crossing" crossingEdges="104042355#3">
        <lane id=":1200701821_c0_0" index="0" allow="pedestrian" speed="1.00" length="1.00" width="4.00" shape="1093.37,1680.23 1094.37,1680.10"/>
    </edge>
    <edge id=":1200701821_w0" function="walkingarea">
        <lane id=":1200701821_w0_0" index="0" allow="pedestrian" speed="1.00" length="3.23" width="4.00" shape="1097.27,1685.46 1096.51,1682.35 1096.51,1682.35 1095.76,1679.24 1094.10,1678.11 1094.63,1682.08"/>
    </edge>
    <edge id=":1200701821_w1" function="walkingarea">
        <lane id=":1200701821_w1_0" index="0" allow="pedestrian" speed="1.00" length="3.37" width="4.00" shape="1093.63,1682.21 1093.11,1678.24 1091.55,1680.24 1092.25,1683.36 1092.25,1683.36 1092.96,1686.48"/>
    </edge>
    <edge id=":1200737315_0" function="internal">
        <lane id=":1200737315_0_0" index="0" allow="bicycle" speed="8.33" length="5.21" width="1.00" shape="1156.02,1507.02 1160.67,1504.65"/>
    </edge>
    <edge id=":1200737484_w0" function="walkingarea">
        <lane id=":1200737484_w0_0" index="0" allow="pedestrian" speed="1.00" length="8.05" width="2.00" shape="1103.57,1487.59 1105.52,1487.12 1105.95,1486.99 1107.67,1485.96 1103.04,1476.57 1101.07,1476.94"/>
    </edge>
    <edge id=":1200737664_w0" function="walkingarea">
        <lane id=":1200737664_w0_0" index="0" allow="pedestrian" speed="1.00" length="3.94" width="2.00" shape="1095.47,1459.42 1096.95,1458.07 1096.82,1455.65 1095.16,1454.53 1092.98,1455.11 1092.09,1456.90 1094.86,1458.76 1094.38,1458.29 1093.96,1457.93 1093.49,1457.63 1092.90,1457.31"/>
    </edge>
    <edge id=":1200785851_0" function="internal">
        <lane id=":1200785851_0_0" index="0" allow="delivery bicycle pedestrian" speed="5.56" length="5.58" shape="1127.90,1602.71 1126.53,1601.78 1125.57,1601.17 1124.54,1600.70 1122.98,1600.16"/>
    </edge>
    <edge id=":1200785851_1" function="internal">
        <lane id=":1200785851_1_0" index="0" allow="delivery bicycle pedestrian" speed="3.65" length="2.34" shape="1127.90,1602.71 1127.35,1601.38 1127.47,1600.49"/>
    </edge>
    <edge id=":1200785851_4" function="internal">
        <lane id=":1200785851_4_0" index="0" speed="3.65" length="2.34" shape="1127.47,1600.49 1128.24,1600.05 1129.69,1600.06"/>
    </edge>
    <edge id=":1200785851_2" function="internal">
        <lane id=":1200785851_2_0" index="0" allow="delivery bicycle pedestrian" speed="5.56" length="6.48" shape="1123.95,1597.11 1125.77,1597.73 1126.97,1598.28 1128.09,1598.97 1129.69,1600.06"/>
    </edge>
    <edge id=":1200785851_3" function="internal">
        <lane id=":1200785851_3_0" index="0" allow="delivery bicycle pedestrian" speed="3.65" length="2.34" shape="1123.95,1597.11 1124.85,1598.24 1124.99,1599.12"/>
    </edge>
    <edge id=":1200785851_5" function="internal">
        <lane id=":1200785851_5_0" index="0" speed="3.65" length="2.34" shape="1124.99,1599.12 1124.37,1599.76 1122.98,1600.16"/>
    </edge>
    <edge id=":1200785851_w0" function="walkingarea">
        <lane id=":1200785851_w0_0" index="0" allow="pedestrian" speed="1.00" length="5.90" width="3.20" shape="1127.01,1604.04 1128.79,1601.38 1128.79,1601.38 1130.58,1598.73 1128.24,1595.25 1126.34,1594.62 1124.44,1595.58 1123.47,1598.63 1123.47,1598.63 1122.50,1601.68 1123.43,1604.10 1125.35,1604.65 1126.65,1603.86 1126.31,1603.79 1126.00,1603.84 1125.73,1604.00 1125.51,1604.27"/>
    </edge>
    <edge id=":1200785993_0" function="internal">
        <lane id=":1200785993_0_0" index="0" allow="bicycle" speed="4.10" length="3.39" width="1.00" shape="1114.22,1545.88 1113.38,1546.24 1112.83,1546.78 1112.56,1547.52 1112.58,1548.44"/>
    </edge>
    <edge id=":1200785993_1" function="internal">
        <lane id=":1200785993_1_0" index="0" allow="bicycle" speed="8.33" length="2.97" width="1.00" shape="1114.22,1545.88 1111.36,1546.65"/>
    </edge>
    <edge id=":1200785993_2" function="internal">
        <lane id=":1200785993_2_0" index="0" allow="bicycle" speed="8.33" length="3.02" width="1.00" shape="1112.07,1545.46 1112.58,1548.44"/>
    </edge>
    <edge id=":1200785993_3" function="internal">
        <lane id=":1200785993_3_0" index="0" allow="bicycle" speed="2.89" length="1.56" width="1.00" shape="1112.07,1545.46 1112.09,1545.89 1111.98,1546.23 1111.74,1546.49 1111.36,1546.65"/>
    </edge>
    <edge id=":1200840319_0" function="internal">
        <lane id=":1200840319_0_0" index="0" disallow="tram rail_urban rail rail_electric pedestrian ship" speed="6.53" length="10.41" shape="921.20,1391.98 918.48,1390.61 916.16,1390.50 914.25,1391.63 912.74,1394.02"/>
    </edge>
    <edge id=":1200840319_1" function="internal">
        <lane id=":1200840319_1_0" index="0" disallow="tram rail_urban rail rail_electric pedestrian ship" speed="3.65" length="4.67" shape="923.00,1389.34 922.46,1388.00 922.59,1387.12 923.37,1386.68 924.81,1386.70"/>
    </edge>
    <edge id=":1200840319_c0" function="crossing" crossingEdges="-328674819#1 328674815">
        <lane id=":1200840319_c0_0" index="0" allow="pedestrian" speed="1.00" length="12.80" width="4.00" shape="925.87,1381.61 918.64,1392.18"/>
    </edge>
    <edge id=":1200840319_w0" function="walkingarea">
        <lane id=":1200840319_w0_0" index="0" allow="pedestrian" speed="1.00" length="3.59" width="4.00" shape="914.21,1394.66 916.96,1395.86 918.60,1395.78 920.29,1393.30 918.95,1392.54 917.73,1392.17 916.65,1392.19 915.71,1392.62 914.89,1393.44"/>
    </edge>
    <edge id=":1200840319_w1" function="walkingarea">
        <lane id=":1200840319_w1_0" index="0" allow="pedestrian" speed="1.00" length="2.50" width="4.00" shape="927.52,1382.74 929.21,1380.26 913.75,1388.43 916.32,1384.75 918.98,1382.34 921.73,1381.20 924.58,1381.33"/>
    </edge>
    <edge id=":1200840338_0" function="internal">
        <lane id=":1200840338_0_0" index="0" allow="delivery bicycle pedestrian" speed="5.56" length="9.41" shape="1074.28,1655.39 1073.61,1646.01"/>
    </edge>
    <edge id=":1200840338_1" function="internal">
        <lane id=":1200840338_1_0" index="0" allow="delivery bicycle pedestrian" speed="5.56" length="10.17" shape="1074.28,1655.39 1074.48,1652.62 1075.52,1650.57 1077.40,1649.25 1080.12,1648.65"/>
    </edge>
    <edge id=":1200840338_2" function="internal">
        <lane id=":1200840338_2_0" index="0" allow="delivery bicycle pedestrian" speed="3.65" length="4.67" shape="1074.28,1655.39 1074.99,1654.14 1075.76,1653.68 1076.59,1654.02 1077.47,1655.16"/>
    </edge>
    <edge id=":1200840338_3" function="internal">
        <lane id=":1200840338_3_0" index="0" allow="delivery bicycle pedestrian" speed="5.05" length="5.02" shape="1080.36,1651.84 1079.01,1652.14 1078.08,1652.79 1077.57,1653.80 1077.47,1655.16"/>
    </edge>
    <edge id=":1200840338_4" function="internal">
        <lane id=":1200840338_4_0" index="0" allow="delivery bicycle pedestrian" speed="5.56" length="10.18" shape="1080.36,1651.84 1077.58,1651.66 1075.52,1650.62 1074.20,1648.74 1073.61,1646.01"/>
    </edge>
    <edge id=":1200840338_5" function="internal">
        <lane id=":1200840338_5_0" index="0" allow="delivery bicycle pedestrian" speed="3.65" length="4.67" shape="1080.36,1651.84 1079.11,1651.14 1078.65,1650.37 1078.99,1649.54 1080.12,1648.65"/>
    </edge>
    <edge id=":1200840338_6" function="internal">
        <lane id=":1200840338_6_0" index="0" allow="delivery bicycle pedestrian" speed="5.04" length="5.01" shape="1076.81,1645.78 1077.09,1647.13 1077.74,1648.05 1078.75,1648.56 1080.12,1648.65"/>
    </edge>
    <edge id=":1200840338_7" function="internal">
        <lane id=":1200840338_7_0" index="0" allow="delivery bicycle pedestrian" speed="5.56" length="9.40" shape="1076.81,1645.78 1077.47,1655.16"/>
    </edge>
    <edge id=":1200840338_8" function="internal">
        <lane id=":1200840338_8_0" index="0" allow="delivery bicycle pedestrian" speed="3.65" length="4.67" shape="1076.81,1645.78 1076.09,1647.04 1075.32,1647.49 1074.50,1647.15 1073.61,1646.01"/>
    </edge>
    <edge id=":1200840338_w0" function="walkingarea">
        <lane id=":1200840338_w0_0" index="0" allow="pedestrian" speed="1.00" length="6.87" width="3.20" shape="1072.68,1655.51 1075.88,1655.28 1075.88,1655.28 1079.07,1655.05 1080.48,1653.44 1080.24,1650.25 1080.24,1650.25 1080.00,1647.06 1078.40,1645.67 1075.21,1645.90 1075.21,1645.90 1072.02,1646.12"/>
    </edge>
    <edge id=":1200840367_0" function="internal">
        <lane id=":1200840367_0_0" index="0" disallow="tram rail_urban rail rail_electric pedestrian ship" speed="13.89" length="8.07" shape="1232.14,2084.06 1233.14,2086.15 1234.19,2087.40 1235.29,2088.63 1236.43,2090.67"/>
        <lane id=":1200840367_0_1" index="1" disallow="tram rail_urban rail rail_electric pedestrian ship" speed="13.89" length="8.07" shape="1232.14,2084.06 1232.69,2086.36 1232.72,2088.03 1232.80,2089.68 1233.49,2091.93"/>
        <lane id=":1200840367_0_2" index="2" disallow="tram rail_urban rail rail_electric pedestrian ship" speed="13.89" length="8.07" shape="1229.12,2085.13 1229.69,2087.49 1229.74,2089.20 1229.84,2090.89 1230.55,2093.19"/>
    </edge>
    <edge id=":1200840367_w0" function="walkingarea">
        <lane id=":1200840367_w0_0" index="0" allow="pedestrian" speed="1.00" length="7.68" width="3.00" shape="1237.90,2090.04 1240.66,2088.86 1236.47,2082.53 1233.64,2083.53 1234.30,2085.04 1234.98,2086.05 1235.68,2086.82 1236.41,2087.58 1237.15,2088.57"/>
    </edge>
    <edge id=":1200840512_0" function="internal">
        <lane id=":1200840512_0_0" index="0" disallow="tram rail_urban rail rail_electric pedestrian ship" speed="13.89" length="6.36" shape="1198.66,1980.64 1200.53,1986.83"/>
        <lane id=":1200840512_0_1" index="1" disallow="tram rail_urban rail rail_electric pedestrian ship" speed="13.89" length="6.36" shape="1195.61,1981.61 1197.45,1987.70"/>
        <lane id=":1200840512_0_2" index="2" disallow="tram rail_urban rail rail_electric pedestrian ship" speed="13.89" length="6.36" shape="1192.56,1982.59 1194.37,1988.57"/>
    </edge>
    <edge id=":1200840512_3" function="internal">
        <lane id=":1200840512_3_0" index="0" disallow="tram rail_urban rail rail_electric pedestrian ship" speed="6.10" length="7.81" shape="1190.49,1986.45 1193.22,1985.88 1195.29,1985.90 1196.70,1986.51 1197.45,1987.70"/>
    </edge>
    <edge id=":1200840512_4" function="internal">
        <lane id=":1200840512_4_0" index="0" disallow="tram rail_urban rail rail_electric pedestrian ship" speed="5.06" length="5.05" shape="1190.49,1986.45 1191.87,1986.26 1192.98,1986.55 1193.81,1987.32 1194.37,1988.57"/>
    </edge>
    <edge id=":1200840512_c0" function="crossing" crossingEdges="328674809#0">
        <lane id=":1200840512_c0_0" index="0" allow="pedestrian" speed="1.00" length="9.60" width="4.00" shape="1191.65,1984.98 1200.79,1982.06"/>
    </edge>
    <edge id=":1200840512_w0" function="walkingarea">
        <lane id=":1200840512_w0_0" index="0" allow="pedestrian" speed="1.00" length="4.62" width="4.00" shape="1202.07,1986.39 1204.96,1985.57 1203.04,1979.24 1200.18,1980.15 1201.40,1983.96"/>
    </edge>
    <edge id=":1200840512_w1" function="walkingarea">
        <lane id=":1200840512_w1_0" index="0" allow="pedestrian" speed="1.00" length="1.87" width="4.00" shape="1192.26,1986.89 1191.04,1983.08 1190.05,1984.91 1190.92,1987.99"/>
    </edge>
    <edge id=":1200840518_0" function="internal">
        <lane id=":1200840518_0_0" index="0" disallow="tram rail_urban rail rail_electric pedestrian ship" speed="13.89" length="8.21" shape="1126.08,1707.78 1126.78,1710.08 1127.63,1711.55 1128.48,1713.01 1129.19,1715.31"/>
        <lane id=":1200840518_0_1" index="1" disallow="tram rail_urban rail rail_electric pedestrian ship" speed="13.89" length="8.21" shape="1126.08,1707.78 1126.29,1710.18 1126.06,1711.86 1125.83,1713.54 1126.06,1715.94"/>
        <lane id=":1200840518_0_2" index="2" disallow="tram rail_urban rail rail_electric pedestrian ship" speed="13.89" length="8.21" shape="1122.93,1708.39 1123.15,1710.80 1122.92,1712.48 1122.69,1714.16 1122.92,1716.57"/>
    </edge>
    <edge id=":1200840518_w0" function="walkingarea">
        <lane id=":1200840518_w0_0" index="0" allow="pedestrian" speed="1.00" length="8.13" width="3.00" shape="1130.76,1715.00 1133.70,1714.41 1130.59,1706.91 1127.65,1707.48 1128.09,1709.14 1128.62,1710.32 1129.20,1711.24 1129.77,1712.16 1130.31,1713.33"/>
    </edge>
    <edge id=":1200925882_0" function="internal">
        <lane id=":1200925882_0_0" index="0" allow="bicycle" speed="8.33" length="3.96" width="1.00" shape="1082.27,1556.35 1081.37,1552.50"/>
    </edge>
    <edge id=":1200925882_1" function="internal">