<?xml version="1.0" encoding="UTF-8"?>
<!-- generated on 2018-11-14 15:51:00.880000 by $Id$ via randomTrips.py
  options: 
-->
<routes xmlns:xsi="http://www.w3.org/2001/XMLSchema-instance" xsi:noNamespaceSchemaLocation="http://sumo.dlr.de/xsd/routes_file.xsd">
    <vType id="bike_bicycle" vClass="bicycle">
    </vType>
    <trip id="bike0" depart="0.00" departLane="best" from="7494005#2" to="-150115772#1" type="bike_bicycle"/>
    <trip id="bike1" depart="9.65" departLane="best" from="104042355#5" to="-7496908#1" type="bike_bicycle"/>
    <trip id="bike2" depart="19.29" departLane="best" from="7494133" to="7494021#2" type="bike_bicycle"/>
    <trip id="bike3" depart="28.94" departLane="best" from="7496927#0" to="-308934112#0" type="bike_bicycle"/>
    <trip id="bike4" depart="38.59" departLane="best" from="206556875#1" to="-189481512" type="bike_bicycle"/>
    <trip id="bike5" depart="48.24" departLane="best" from="-7494185#0" to="308974658#2" type="bike_bicycle"/>
    <trip id="bike6" depart="57.88" departLane="best" from="-189481513#1" to="-7494185#1" type="bike_bicycle"/>
    <trip id="bike7" depart="67.53" departLane="best" from="7494008" to="328674794" type="bike_bicycle"/>
    <trip id="bike8" depart="77.18" departLane="best" from="-7494185#1" to="328674822#0" type="bike_bicycle"/>
    <trip id="bike9" depart="86.83" departLane="best" from="7494295#4" to="-121157898#0" type="bike_bicycle"/>
    <trip id="bike10" depart="96.47" departLane="best" from="7494295#2" to="7494042#1" type="bike_bicycle"/>
    <trip id="bike11" depart="106.12" departLane="best" from="139728280#1" to="-7494127#3" type="bike_bicycle"/>
    <trip id="bike12" depart="115.77" departLane="best" from="7497052#1" to="189481513#3" type="bike_bicycle"/>
    <trip id="bike13" depart="125.41" departLane="best" from="-278067756" to="-309499148#3" type="bike_bicycle"/>
    <trip id="bike15" depart="144.71" departLane="best" from="7494295#3" to="7494109#2" type="bike_bicycle"/>
    <trip id="bike16" depart="154.36" departLane="best" from="328674792" to="7497054#2" type="bike_bicycle"/>
    <trip id="bike17" depart="164.00" departLane="best" from="189645337#0" to="328674797#0" type="bike_bicycle"/>
    <trip id="bike18" depart="173.65" departLane="best" from="7495942#0" to="612559962" type="bike_bicycle"/>
    <trip id="bike20" depart="192.94" departLane="best" from="7494104#0" to="-189669279#0" type="bike_bicycle"/>
    <trip id="bike21" depart="202.59" departLane="best" from="-7494196" to="127115493" type="bike_bicycle"/>
    <trip id="bike22" depart="212.24" departLane="best" from="-278065855#1" to="-7496986#1" type="bike_bicycle"/>
    <trip id="bike23" depart="221.89" departLane="best" from="-308970880" to="104054486#2" type="bike_bicycle"/>
    <trip id="bike24" depart="231.53" departLane="best" from="7494005#0" to="189669279#1" type="bike_bicycle"/>
    <trip id="bike25" depart="241.18" departLane="best" from="189481513#0" to="-7496854#1" type="bike_bicycle"/>
    <trip id="bike26" depart="250.83" departLane="best" from="104042355#1" to="7496965#2" type="bike_bicycle"/>
    <trip id="bike27" depart="260.48" departLane="best" from="7494008" to="529621703#3" type="bike_bicycle"/>
    <trip id="bike28" depart="270.12" departLane="best" from="-7494034" to="7494109#2" type="bike_bicycle"/>
    <trip id="bike29" depart="279.77" departLane="best" from="-7494021#4" to="190401315#1" type="bike_bicycle"/>
    <trip id="bike30" depart="289.42" departLane="best" from="98531328#1" to="7493985#2" type="bike_bicycle"/>
    <trip id="bike32" depart="308.71" departLane="best" from="7496234#8" to="7494165" type="bike_bicycle"/>
    <trip id="bike33" depart="318.36" departLane="best" from="-7494196" to="-189481513#0" type="bike_bicycle"/>
    <trip id="bike34" depart="328.01" departLane="best" from="121157898#1" to="104049971#4" type="bike_bicycle"/>
    <trip id="bike35" depart="337.65" departLane="best" from="-7494148#3" to="7496969#0" type="bike_bicycle"/>
    <trip id="bike36" depart="347.30" departLane="best" from="7496896#0" to="150115772#1" type="bike_bicycle"/>
    <trip id="bike37" depart="356.95" departLane="best" from="7494011" to="218541215" type="bike_bicycle"/>
    <trip id="bike38" depart="366.59" departLane="best" from="7496941#0" to="308873075#1" type="bike_bicycle"/>
    <trip id="bike39" depart="376.24" departLane="best" from="104042355#0" to="104042355#0" type="bike_bicycle"/>
    <trip id="bike41" depart="395.54" departLane="best" from="445828969#2" to="7496890#1" type="bike_bicycle"/>
    <trip id="bike42" depart="405.18" departLane="best" from="190384284" to="-7496884#1" type="bike_bicycle"/>
    <trip id="bike44" depart="424.48" departLane="best" from="-278067756" to="-189669279#1" type="bike_bicycle"/>
    <trip id="bike45" depart="434.13" departLane="best" from="-308974658#1" to="65756423#0" type="bike_bicycle"/>
    <trip id="bike46" depart="443.77" departLane="best" from="7494196" to="270143190" type="bike_bicycle"/>
    <trip id="bike47" depart="453.42" departLane="best" from="-190401315#1" to="206556874#1" type="bike_bicycle"/>
    <trip id="bike48" depart="463.07" departLane="best" from="98531331#1" to="309499148#0" type="bike_bicycle"/>
    <trip id="bike49" depart="472.71" departLane="best" from="7497060" to="7496234#8" type="bike_bicycle"/>
    <trip id="bike51" depart="492.01" departLane="best" from="7494032#0" to="309499148#4" type="bike_bicycle"/>
    <trip id="bike52" depart="501.66" departLane="best" from="104042355#1" to="7493985#2" type="bike_bicycle"/>
    <trip id="bike53" depart="511.30" departLane="best" from="-308974658#2" to="278065856" type="bike_bicycle"/>
    <trip id="bike54" depart="520.95" departLane="best" from="270313906" to="7497026#0" type="bike_bicycle"/>
    <trip id="bike56" depart="540.25" departLane="best" from="309273471#0" to="-7494148#0" type="bike_bicycle"/>
    <trip id="bike57" depart="549.89" departLane="best" from="7496941#0" to="7496845" type="bike_bicycle"/>
    <trip id="bike58" depart="559.54" departLane="best" from="104054483" to="7493985#0" type="bike_bicycle"/>
    <trip id="bike59" depart="569.19" departLane="best" from="626680691" to="-7494127#2" type="bike_bicycle"/>
    <trip id="bike60" depart="578.83" departLane="best" from="7494152" to="309499148#5" type="bike_bicycle"/>
    <trip id="bike61" depart="588.48" departLane="best" from="7494166#1" to="309499148#1" type="bike_bicycle"/>
    <trip id="bike62" depart="598.13" departLane="best" from="-104049993#1" to="150115772#4" type="bike_bicycle"/>
    <trip id="bike65" depart="627.07" departLane="best" from="104059853#4" to="-190401315#0" type="bike_bicycle"/>
    <trip id="bike67" depart="646.36" departLane="best" from="-278065858#1" to="308873099#2" type="bike_bicycle"/>
    <trip id="bike68" depart="656.01" departLane="best" from="-270143188#0" to="7494143#0" type="bike_bicycle"/>
    <trip id="bike69" depart="665.66" departLane="best" from="7494154#1" to="-7494021#4" type="bike_bicycle"/>
    <trip id="bike70" depart="675.31" departLane="best" from="306704334#1" to="328674796#0" type="bike_bicycle"/>
    <trip id="bike71" depart="684.95" departLane="best" from="104042355#0" to="7496846" type="bike_bicycle"/>
    <trip id="bike72" depart="694.60" departLane="best" from="206556875#1" to="-7496854#2" type="bike_bicycle"/>
    <trip id="bike73" depart="704.25" departLane="best" from="328674797#0" to="7494109#2" type="bike_bicycle"/>
    <trip id="bike74" depart="713.90" departLane="best" from="-7494136#1" to="139728381#1" type="bike_bicycle"/>
    <trip id="bike75" depart="723.54" departLane="best" from="98531331#1" to="7494005#2" type="bike_bicycle"/>
    <trip id="bike76" depart="733.19" departLane="best" from="268378465" to="309273471#8" type="bike_bicycle"/>
    <trip id="bike78" depart="752.48" departLane="best" from="139728280#0" to="328674822#0" type="bike_bicycle"/>
    <trip id="bike79" depart="762.13" departLane="best" from="-7495942#1" to="-7496908#0" type="bike_bicycle"/>
    <trip id="bike80" depart="771.78" departLane="best" from="-270143190" to="65756423#2" type="bike_bicycle"/>
    <trip id="bike81" depart="781.43" departLane="best" from="-7494196" to="7496896#2" type="bike_bicycle"/>
    <trip id="bike82" depart="791.07" departLane="best" from="7496855#1" to="-270143185#0" type="bike_bicycle"/>
    <trip id="bike83" depart="800.72" departLane="best" from="-7496854#2" to="7494018#1" type="bike_bicycle"/>
    <trip id="bike84" depart="810.37" departLane="best" from="-7494165" to="-7494028#1" type="bike_bicycle"/>
    <trip id="bike85" depart="820.02" departLane="best" from="7496980" to="328674806#2" type="bike_bicycle"/>
    <trip id="bike86" depart="829.66" departLane="best" from="306704328#3" to="7494185#0" type="bike_bicycle"/>
    <trip id="bike87" depart="839.31" departLane="best" from="7494295#3" to="-7494152" type="bike_bicycle"/>
    <trip id="bike88" depart="848.96" departLane="best" from="-308970880" to="278065855#0" type="bike_bicycle"/>
    <trip id="bike89" depart="858.60" departLane="best" from="206556875#1" to="308873075#4" type="bike_bicycle"/>
    <trip id="bike90" depart="868.25" departLane="best" from="7494129#3" to="7494021#0" type="bike_bicycle"/>
    <trip id="bike91" depart="877.90" departLane="best" from="7497078#1" to="-309499148#4" type="bike_bicycle"/>
    <trip id="bike92" depart="887.55" departLane="best" from="190397929#0" to="189645337#0" type="bike_bicycle"/>
    <trip id="bike94" depart="906.84" departLane="best" from="-7494129#3" to="290226822" type="bike_bicycle"/>
    <trip id="bike95" depart="916.49" departLane="best" from="206556875#1" to="104054486#2" type="bike_bicycle"/>
    <trip id="bike98" depart="945.43" departLane="best" from="328674801#2" to="-190397929#0" type="bike_bicycle"/>
    <trip id="bike99" depart="955.08" departLane="best" from="98531331#3" to="7494304#4" type="bike_bicycle"/>
    <trip id="bike103" depart="993.67" departLane="best" from="190397929#0" to="-190401315#0" type="bike_bicycle"/>
    <trip id="bike104" depart="1003.31" departLane="best" from="189645337#0" to="7497078#2" type="bike_bicycle"/>
    <trip id="bike105" depart="1012.96" departLane="best" from="104042355#0" to="7494167" type="bike_bicycle"/>
    <trip id="bike106" depart="1022.61" departLane="best" from="278065855#0" to="270143190" type="bike_bicycle"/>
    <trip id="bike107" depart="1032.25" departLane="best" from="7497052#1" to="98531331#1" type="bike_bicycle"/>
    <trip id="bike108" depart="1041.90" departLane="best" from="328674803#0" to="7494104#0" type="bike_bicycle"/>
    <trip id="bike109" depart="1051.55" departLane="best" from="-7494021#0" to="139728276#1" type="bike_bicycle"/>
    <trip id="bike111" depart="1070.84" departLane="best" from="328674798#1" to="7494129#6" type="bike_bicycle"/>
    <trip id="bike112" depart="1080.49" departLane="best" from="-190398954" to="328674816" type="bike_bicycle"/>
    <trip id="bike113" depart="1090.14" departLane="best" from="309273471#2" to="7496234#1" type="bike_bicycle"/>
    <trip id="bike114" depart="1099.78" departLane="best" from="-7494021#1" to="7497052#0" type="bike_bicycle"/>
    <trip id="bike115" depart="1109.43" departLane="best" from="-278065856" to="-7494152" type="bike_bicycle"/>
    <trip id="bike116" depart="1119.08" departLane="best" from="529621703#0" to="7494021#1" type="bike_bicycle"/>
    <trip id="bike117" depart="1128.73" departLane="best" from="-7496854#1" to="-7494021#0" type="bike_bicycle"/>
    <trip id="bike118" depart="1138.37" departLane="best" from="7496921#1" to="104042355#0" type="bike_bicycle"/>
    <trip id="bike119" depart="1148.02" departLane="best" from="529621703#0" to="612559962" type="bike_bicycle"/>
    <trip id="bike120" depart="1157.67" departLane="best" from="206556874#4" to="328674815" type="bike_bicycle"/>
    <trip id="bike121" depart="1167.32" departLane="best" from="309499148#0" to="7496965#1" type="bike_bicycle"/>
    <trip id="bike122" depart="1176.96" departLane="best" from="-7494137#0" to="7494062#7" type="bike_bicycle"/>
    <trip id="bike123" depart="1186.61" departLane="best" from="-7496855#0" to="218541215" type="bike_bicycle"/>
    <trip id="bike124" depart="1196.26" departLane="best" from="7494021#2" to="139728278#2" type="bike_bicycle"/>
    <trip id="bike125" depart="1205.90" departLane="best" from="121157898#1" to="7494136#0" type="bike_bicycle"/>
    <trip id="bike126" depart="1215.55" departLane="best" from="-270143190" to="306704334#1" type="bike_bicycle"/>
    <trip id="bike127" depart="1225.20" departLane="best" from="98531331#3" to="98531331#1" type="bike_bicycle"/>
    <trip id="bike128" depart="1234.85" departLane="best" from="-270143190" to="-7496855#0" type="bike_bicycle"/>
    <trip id="bike129" depart="1244.49" departLane="best" from="104042355#0" to="7496961" type="bike_bicycle"/>
    <trip id="bike130" depart="1254.14" departLane="best" from="7496908#0" to="7496854#2" type="bike_bicycle"/>
    <trip id="bike131" depart="1263.79" departLane="best" from="189481513#0" to="-7494129#3" type="bike_bicycle"/>
    <trip id="bike132" depart="1273.44" departLane="best" from="7496234#0" to="7494052" type="bike_bicycle"/>
    <trip id="bike133" depart="1283.08" departLane="best" from="65756423#0" to="98531328#0" type="bike_bicycle"/>
    <trip id="bike134" depart="1292.73" departLane="best" from="7494011" to="-121157898#1" type="bike_bicycle"/>
    <trip id="bike135" depart="1302.38" departLane="best" from="7494304#3" to="139728278#2" type="bike_bicycle"/>
    <trip id="bike136" depart="1312.02" departLane="best" from="7494018#1" to="7496967#0" type="bike_bicycle"/>
    <trip id="bike137" depart="1321.67" departLane="best" from="-612559962" to="-7494011" type="bike_bicycle"/>
    <trip id="bike138" depart="1331.32" departLane="best" from="-308974657" to="328674797#1" type="bike_bicycle"/>
    <trip id="bike139" depart="1340.97" departLane="best" from="104042355#4" to="529621703#0" type="bike_bicycle"/>
    <trip id="bike140" depart="1350.61" departLane="best" from="7494121#0" to="-7495942#1" type="bike_bicycle"/>
    <trip id="bike142" depart="1369.91" departLane="best" from="308873084#1" to="7496896#2" type="bike_bicycle"/>
    <trip id="bike144" depart="1389.20" departLane="best" from="206556875#1" to="104054486#1" type="bike_bicycle"/>
    <trip id="bike145" depart="1398.85" departLane="best" from="-121157898#1" to="7494155" type="bike_bicycle"/>
    <trip id="bike146" depart="1408.50" departLane="best" from="7494005#1" to="104042355#8" type="bike_bicycle"/>
    <trip id="bike147" depart="1418.14" departLane="best" from="7494137#0" to="328674797#0" type="bike_bicycle"/>
    <trip id="bike148" depart="1427.79" departLane="best" from="206556875#2" to="-121157898#2" type="bike_bicycle"/>
    <trip id="bike149" depart="1437.44" departLane="best" from="-270143190" to="7496855#1" type="bike_bicycle"/>
    <trip id="bike150" depart="1447.09" departLane="best" from="7496931#0" to="328674796#0" type="bike_bicycle"/>
    <trip id="bike151" depart="1456.73" departLane="best" from="7496234#1" to="328674815" type="bike_bicycle"/>
    <trip id="bike152" depart="1466.38" departLane="best" from="-7494009" to="-7494021#4" type="bike_bicycle"/>
    <trip id="bike153" depart="1476.03" departLane="best" from="104059853#4" to="7496893#3" type="bike_bicycle"/>
    <trip id="bike154" depart="1485.67" departLane="best" from="7494231#3" to="7496234#8" type="bike_bicycle"/>
    <trip id="bike155" depart="1495.32" departLane="best" from="7496927#1" to="-7496854#2" type="bike_bicycle"/>
    <trip id="bike157" depart="1514.62" departLane="best" from="7494166#1" to="7496855#1" type="bike_bicycle"/>
    <trip id="bike158" depart="1524.26" departLane="best" from="190397929#1" to="626668370" type="bike_bicycle"/>
    <trip id="bike159" depart="1533.91" departLane="best" from="-7494017#2" to="7496932" type="bike_bicycle"/>
    <trip id="bike161" depart="1553.20" departLane="best" from="7494295#5" to="7496855#0" type="bike_bicycle"/>
    <trip id="bike162" depart="1562.85" departLane="best" from="-189481513#0" to="7494127#1" type="bike_bicycle"/>
    <trip id="bike164" depart="1582.15" departLane="best" from="7494295#0" to="7496234#9" type="bike_bicycle"/>
    <trip id="bike165" depart="1591.79" departLane="best" from="7494295#5" to="104049971#4" type="bike_bicycle"/>
    <trip id="bike166" depart="1601.44" departLane="best" from="7494185#0" to="-626680691" type="bike_bicycle"/>
    <trip id="bike167" depart="1611.09" departLane="best" from="7496890#1" to="7496234#7" type="bike_bicycle"/>
    <trip id="bike168" depart="1620.74" departLane="best" from="-7494185#2" to="7494285#0" type="bike_bicycle"/>
    <trip id="bike171" depart="1649.68" departLane="best" from="-189481512" to="-7494165" type="bike_bicycle"/>
    <trip id="bike172" depart="1659.32" departLane="best" from="139728276#0" to="7496234#9" type="bike_bicycle"/>
    <trip id="bike174" depart="1678.62" departLane="best" from="7494007#1" to="218541215" type="bike_bicycle"/>
    <trip id="bike175" depart="1688.27" departLane="best" from="7497077" to="309499148#4" type="bike_bicycle"/>
    <trip id="bike176" depart="1697.91" departLane="best" from="7496986#1" to="-7494011" type="bike_bicycle"/>
    <trip id="bike177" depart="1707.56" departLane="best" from="7497060" to="-7494148#0" type="bike_bicycle"/>
    <trip id="bike178" depart="1717.21" departLane="best" from="7497052#3" to="104049971#3" type="bike_bicycle"/>
    <trip id="bike179" depart="1726.86" departLane="best" from="-308974658#1" to="278065856" type="bike_bicycle"/>
    <trip id="bike180" depart="1736.50" departLane="best" from="7494129#3" to="139728381#2" type="bike_bicycle"/>
    <trip id="bike181" depart="1746.15" departLane="best" from="626680691" to="309273471#4" type="bike_bicycle"/>
    <trip id="bike182" depart="1755.80" departLane="best" from="189646381#3" to="328674808#1" type="bike_bicycle"/>
    <trip id="bike183" depart="1765.44" departLane="best" from="-7496908#1" to="7494054" type="bike_bicycle"/>
    <trip id="bike184" depart="1775.09" departLane="best" from="-104049993#1" to="7496931#1" type="bike_bicycle"/>
    <trip id="bike185" depart="1784.74" departLane="best" from="328674797#0" to="7494104#1" type="bike_bicycle"/>
    <trip id="bike186" depart="1794.39" departLane="best" from="7494137#0" to="7494019" type="bike_bicycle"/>
    <trip id="bike188" depart="1813.68" departLane="best" from="7494018#1" to="189481513#0" type="bike_bicycle"/>
    <trip id="bike189" depart="1823.33" departLane="best" from="121157898#0" to="7495942#4" type="bike_bicycle"/>
    <trip id="bike190" depart="1832.97" departLane="best" from="7494121#1" to="139728278#2" type="bike_bicycle"/>
    <trip id="bike191" depart="1842.62" departLane="best" from="121157898#0" to="270049774#2" type="bike_bicycle"/>
    <trip id="bike192" depart="1852.27" departLane="best" from="190397929#0" to="139728276#1" type="bike_bicycle"/>
    <trip id="bike193" depart="1861.92" departLane="best" from="-328674819#1" to="270143190" type="bike_bicycle"/>
    <trip id="bike194" depart="1871.56" departLane="best" from="7496986#1" to="7494021#2" type="bike_bicycle"/>
    <trip id="bike195" depart="1881.21" departLane="best" from="7496927#3" to="612559962" type="bike_bicycle"/>
    <trip id="bike196" depart="1890.86" departLane="best" from="104054486#1" to="328674796#0" type="bike_bicycle"/>
    <trip id="bike197" depart="1900.51" departLane="best" from="-104049993#1" to="121157898#1" type="bike_bicycle"/>
    <trip id="bike198" depart="1910.15" departLane="best" from="206556875#3" to="328674809#2" type="bike_bicycle"/>
    <trip id="bike199" depart="1919.80" departLane="best" from="7494011" to="308873075#4" type="bike_bicycle"/>
    <trip id="bike201" depart="1939.09" departLane="best" from="306704334#0" to="7496896#0" type="bike_bicycle"/>
    <trip id="bike202" depart="1948.74" departLane="best" from="7494231#3" to="-7494137#0" type="bike_bicycle"/>
    <trip id="bike203" depart="1958.39" departLane="best" from="-278065858#1" to="309273471#7" type="bike_bicycle"/>
    <trip id="bike205" depart="1977.68" departLane="best" from="7494304#4" to="7494133" type="bike_bicycle"/>
    <trip id="bike207" depart="1996.98" departLane="best" from="-7494133" to="-150115772#1" type="bike_bicycle"/>
    <trip id="bike208" depart="2006.63" departLane="best" from="-7496855#2" to="308873078#4" type="bike_bicycle"/>
    <trip id="bike209" depart="2016.27" departLane="best" from="7496849" to="-270143188#0" type="bike_bicycle"/>
    <trip id="bike210" depart="2025.92" departLane="best" from="206556874#1" to="65756423#2" type="bike_bicycle"/>
    <trip id="bike211" depart="2035.57" departLane="best" from="-7494129#5" to="7494034" type="bike_bicycle"/>
    <trip id="bike212" depart="2045.21" departLane="best" from="308934112#0" to="-7497077" type="bike_bicycle"/>
    <trip id="bike213" depart="2054.86" departLane="best" from="7494015" to="-121157898#0" type="bike_bicycle"/>
    <trip id="bike214" depart="2064.51" departLane="best" from="7494148#0" to="7494154#1" type="bike_bicycle"/>
    <trip id="bike215" depart="2074.16" departLane="best" from="-308974657" to="270143191" type="bike_bicycle"/>
    <trip id="bike217" depart="2093.45" departLane="best" from="309399421#0" to="-190397929#0" type="bike_bicycle"/>
    <trip id="bike219" depart="2112.74" departLane="best" from="278065855#1" to="7494231#3" type="bike_bicycle"/>
    <trip id="bike220" depart="2122.39" departLane="best" from="7494021#0" to="98531328#0" type="bike_bicycle"/>
    <trip id="bike221" depart="2132.04" departLane="best" from="529621703#0" to="7496991#0" type="bike_bicycle"/>
    <trip id="bike222" depart="2141.69" departLane="best" from="7496921#1" to="529621703#4" type="bike_bicycle"/>
    <trip id="bike223" depart="2151.33" departLane="best" from="7494121#1" to="308974658#2" type="bike_bicycle"/>
    <trip id="bike224" depart="2160.98" departLane="best" from="7495942#4" to="328674796#0" type="bike_bicycle"/>
    <trip id="bike225" depart="2170.63" departLane="best" from="7496927#0" to="7494129#3" type="bike_bicycle"/>
    <trip id="bike226" depart="2180.28" departLane="best" from="306704334#0" to="104042355#7" type="bike_bicycle"/>
    <trip id="bike227" depart="2189.92" departLane="best" from="-7496855#2" to="7493966#1" type="bike_bicycle"/>
    <trip id="bike228" depart="2199.57" departLane="best" from="7494154#1" to="309448136" type="bike_bicycle"/>
    <trip id="bike230" depart="2218.86" departLane="best" from="-278065855#0" to="121157898#1" type="bike_bicycle"/>
    <trip id="bike231" depart="2228.51" departLane="best" from="104042355#3" to="150115772#3" type="bike_bicycle"/>
    <trip id="bike232" depart="2238.16" departLane="best" from="328674797#1" to="-7494042#0" type="bike_bicycle"/>
    <trip id="bike233" depart="2247.81" departLane="best" from="-7495942#4" to="7494034" type="bike_bicycle"/>
    <trip id="bike234" depart="2257.45" departLane="best" from="7494104#1" to="-268378465" type="bike_bicycle"/>
    <trip id="bike235" depart="2267.10" departLane="best" from="190397929#1" to="328674792" type="bike_bicycle"/>
    <trip id="bike236" depart="2276.75" departLane="best" from="206556874#2" to="-7496854#0" type="bike_bicycle"/>
    <trip id="bike237" depart="2286.39" departLane="best" from="206556874#4" to="7496896#2" type="bike_bicycle"/>
    <trip id="bike238" depart="2296.04" departLane="best" from="445828969#2" to="7494034" type="bike_bicycle"/>
    <trip id="bike239" depart="2305.69" departLane="best" from="7496855#0" to="7494148#3" type="bike_bicycle"/>
    <trip id="bike240" depart="2315.34" departLane="best" from="189645337#1" to="-121157898#0" type="bike_bicycle"/>
    <trip id="bike241" depart="2324.98" departLane="best" from="139728381#1" to="7494136#1" type="bike_bicycle"/>
    <trip id="bike242" depart="2334.63" departLane="best" from="7496854#1" to="7496991#1" type="bike_bicycle"/>
    <trip id="bike243" depart="2344.28" departLane="best" from="206556874#4" to="7494129#5" type="bike_bicycle"/>
    <trip id="bike244" depart="2353.93" departLane="best" from="328674800" to="529621703#0" type="bike_bicycle"/>
    <trip id="bike245" depart="2363.57" departLane="best" from="-7494185#1" to="-7496884#1" type="bike_bicycle"/>
    <trip id="bike246" depart="2373.22" departLane="best" from="268378465" to="-189481512" type="bike_bicycle"/>
    <trip id="bike247" depart="2382.87" departLane="best" from="139728280#0" to="7494021#3" type="bike_bicycle"/>
    <trip id="bike248" depart="2392.51" departLane="best" from="190397929#0" to="-7494133" type="bike_bicycle"/>
    <trip id="bike249" depart="2402.16" departLane="best" from="290226822" to="-7494021#4" type="bike_bicycle"/>
    <trip id="bike250" depart="2411.81" departLane="best" from="7493992#2" to="-150115772#2" type="bike_bicycle"/>
    <trip id="bike251" depart="2421.46" departLane="best" from="189668013" to="328674803#0" type="bike_bicycle"/>
    <trip id="bike252" depart="2431.10" departLane="best" from="-189481513#1" to="7493992#0" type="bike_bicycle"/>
    <trip id="bike253" depart="2440.75" departLane="best" from="-612559962" to="308873075#3" type="bike_bicycle"/>
    <trip id="bike254" depart="2450.40" departLane="best" from="-189669279#1" to="190401315#1" type="bike_bicycle"/>
    <trip id="bike255" depart="2460.05" departLane="best" from="-7494148#3" to="189348135" type="bike_bicycle"/>
    <trip id="bike256" depart="2469.69" departLane="best" from="7494152" to="190401315#1" type="bike_bicycle"/>
    <trip id="bike257" depart="2479.34" departLane="best" from="7494148#0" to="7494304#2" type="bike_bicycle"/>
    <trip id="bike258" depart="2488.99" departLane="best" from="-7496908#0" to="-278065858#1" type="bike_bicycle"/>
    <trip id="bike260" depart="2508.28" departLane="best" from="98531331#3" to="189646381#5" type="bike_bicycle"/>
    <trip id="bike261" depart="2517.93" departLane="best" from="7494008" to="7494166#3" type="bike_bicycle"/>
    <trip id="bike262" depart="2527.58" departLane="best" from="7494008" to="7494136#1" type="bike_bicycle"/>
    <trip id="bike263" depart="2537.22" departLane="best" from="7496992#0" to="-7494185#1" type="bike_bicycle"/>
    <trip id="bike265" depart="2556.52" departLane="best" from="-328674817" to="7494018#1" type="bike_bicycle"/>
    <trip id="bike266" depart="2566.16" departLane="best" from="328674806#2" to="-7496884#1" type="bike_bicycle"/>
    <trip id="bike267" depart="2575.81" departLane="best" from="7494062#2" to="7494154#0" type="bike_bicycle"/>
    <trip id="bike268" depart="2585.46" departLane="best" from="-7494034" to="529621703#2" type="bike_bicycle"/>
    <trip id="bike269" depart="2595.11" departLane="best" from="7494143#1" to="-7494011" type="bike_bicycle"/>
    <trip id="bike270" depart="2604.75" departLane="best" from="7494304#4" to="7497052#2" type="bike_bicycle"/>
    <trip id="bike271" depart="2614.40" departLane="best" from="-308974658#1" to="-150115772#2" type="bike_bicycle"/>
    <trip id="bike272" depart="2624.05" departLane="best" from="121157898#0" to="7494021#2" type="bike_bicycle"/>
    <trip id="bike273" depart="2633.70" departLane="best" from="7497052#1" to="218541215" type="bike_bicycle"/>
    <trip id="bike274" depart="2643.34" departLane="best" from="7494109#1" to="-278065855#1" type="bike_bicycle"/>
    <trip id="bike275" depart="2652.99" departLane="best" from="7494042#0" to="65756423#0" type="bike_bicycle"/>
    <trip id="bike276" depart="2662.64" departLane="best" from="-308970880" to="7494155" type="bike_bicycle"/>
    <trip id="bike277" depart="2672.28" departLane="best" from="7496849" to="47836820#0" type="bike_bicycle"/>
    <trip id="bike278" depart="2681.93" departLane="best" from="-309499148#3" to="7497078#1" type="bike_bicycle"/>
    <trip id="bike279" depart="2691.58" departLane="best" from="7494166#3" to="189646381#4" type="bike_bicycle"/>
    <trip id="bike280" depart="2701.23" departLane="best" from="206556875#3" to="190397929#2" type="bike_bicycle"/>
    <trip id="bike281" depart="2710.87" departLane="best" from="309273471#4" to="189645337#1" type="bike_bicycle"/>
    <trip id="bike282" depart="2720.52" departLane="best" from="7496849" to="7494295#2" type="bike_bicycle"/>
    <trip id="bike283" depart="2730.17" departLane="best" from="-308974657" to="7497052#0" type="bike_bicycle"/>
    <trip id="bike284" depart="2739.82" departLane="best" from="7494005#0" to="7494304#1" type="bike_bicycle"/>
    <trip id="bike285" depart="2749.46" departLane="best" from="7494104#1" to="278065858#0" type="bike_bicycle"/>
    <trip id="bike286" depart="2759.11" departLane="best" from="7494129#6" to="7497052#3" type="bike_bicycle"/>
    <trip id="bike287" depart="2768.76" departLane="best" from="104042355#3" to="7494231#6" type="bike_bicycle"/>
    <trip id="bike288" depart="2778.40" departLane="best" from="328674794" to="308873084#1" type="bike_bicycle"/>
    <trip id="bike289" depart="2788.05" departLane="best" from="218541220#1" to="7494121#0" type="bike_bicycle"/>
    <trip id="bike290" depart="2797.70" departLane="best" from="104042355#2" to="7496234#1" type="bike_bicycle"/>
    <trip id="bike291" depart="2807.35" departLane="best" from="7495942#4" to="-308873084#1" type="bike_bicycle"/>
    <trip id="bike292" depart="2816.99" departLane="best" from="7496908#0" to="-7497077" type="bike_bicycle"/>
    <trip id="bike293" depart="2826.64" departLane="best" from="278065858#2" to="529621703#3" type="bike_bicycle"/>
    <trip id="bike294" depart="2836.29" departLane="best" from="189645337#0" to="-150115772#3" type="bike_bicycle"/>
    <trip id="bike295" depart="2845.93" departLane="best" from="7496849" to="-7494148#2" type="bike_bicycle"/>
    <trip id="bike296" depart="2855.58" departLane="best" from="-7494148#3" to="7494227" type="bike_bicycle"/>