<?xml version="1.0" encoding="UTF-8"?>

<!-- generated on 11/14/18 15:50:58 by Eclipse SUMO polyconvert Version v1_0_1+0176-65b48fbf1c
<configuration xmlns:xsi="http://www.w3.org/2001/XMLSchema-instance" xsi:noNamespaceSchemaLocation="http://sumo.dlr.de/xsd/polyconvertConfiguration.xsd">

    <input>
        <net-file value="D:\Wang\sumo_git\tools\2018-11-14-15-50-43\osm.net.xml"/>
        <osm-files value="D:\Wang\sumo_git\tools\2018-11-14-15-50-43\osm_bbox.osm.xml"/>
        <osm.keep-full-type value="true"/>
        <type-file value="D:\Wang\sumo_git\data\typemap\osmPolyconvert.typ.xml"/>
    </input>

    <output>
        <output-file value="D:\Wang\sumo_git\tools\2018-11-14-15-50-43\osm.poly.xml"/>
    </output>

    <processing>
        <poi-layer-offset value="5"/>
    </processing>

    <report>
        <verbose value="true"/>
    </report>

</configuration>
-->

<additional xmlns:xsi="http://www.w3.org/2001/XMLSchema-instance" xsi:noNamespaceSchemaLocation="http://sumo.dlr.de/xsd/additional_file.xsd">
    <location netOffset="-586808.44,-5770207.67" convBoundary="-102.48,0.00,1829.82,3316.56" origBoundary="4.265626,52.075379,4.293765,52.105410" projParameter="+proj=utm +zone=31 +ellps=WGS84 +datum=WGS84 +units=m +no_defs"/>

    <poly id="104045312" type="leisure.park" color="207,245,201" fill="1" layer="-2.00" shape="924.538270,1366.788069 1055.629579,1467.248493 1081.170549,1485.144048 1095.603246,1497.948333 1103.355126,1508.365044 1110.158190,1521.668689 1111.943595,1526.506351 1118.326814,1523.237095 1135.832218,1514.179075 1154.063139,1504.789060 1184.852230,1487.088159 1110.527608,1435.232057 1026.840389,1372.475944 1010.280376,1362.515761 943.608885,1321.065954 931.519098,1349.455692 924.538270,1366.788069"/>
    <poly id="121157900" type="amenity.parking" color="184,184,179" fill="1" layer="-1.00" shape="1065.403146,1657.295675 1063.633777,1631.765355 1059.565878,1577.680434 1055.531059,1577.976300 1050.799480,1573.876517 1046.651639,1578.631616 1042.616821,1578.927492 1038.868876,1577.337146 1041.571353,1569.441447 1043.182585,1564.741673 1077.754110,1562.927028 1084.474949,1649.922821 1088.015965,1673.303908 1089.686612,1681.143352 1018.083190,1699.625933 1014.561533,1688.716643 1013.692227,1685.942235 1010.824366,1677.592173 1012.946186,1676.962118 1041.515402,1669.233899 1046.813882,1668.003571 1045.008380,1658.871233 1048.406598,1658.530742 1052.455053,1658.235113 1057.193202,1662.346142 1061.348034,1657.580051 1065.403146,1657.295675"/>
    <poly id="130449316" type="leisure.playground" color="207,245,201" fill="1" layer="-2.00" shape="598.732270,1478.679973 623.462057,1458.199140 625.629332,1457.714346 628.632466,1458.412391 630.344106,1460.456140 631.125806,1464.330329 623.010252,1488.585287 618.242376,1490.426155 613.371121,1491.130439 608.418796,1490.598404 604.406602,1489.215127 601.546149,1487.418207 599.829218,1485.285373 598.661116,1481.949536 598.732270,1478.679973"/>
    <poly id="138758668" type="landuse.forest" color="140,196,107" fill="1" layer="-3.00" shape="262.935246,2012.652582 255.122518,2011.926184 252.659719,2011.693947 250.504793,2011.489350 229.673253,2009.544993 235.019631,1951.898765 251.096631,1774.087953 254.641182,1750.108440 260.328342,1720.781837 293.201163,1725.874172 287.439020,1757.124089 284.146512,1780.006601 272.748534,1893.628968 262.935246,2012.652582"/>
    <poly id="138758670" type="landuse.forest" color="140,196,107" fill="1" layer="-3.00" shape="286.373868,1724.808987 283.838295,1724.419711 281.890519,1724.118604 279.942742,1723.817498 277.359408,1723.416264 260.328342,1720.781837 263.027856,1707.890485 267.020685,1689.626054 288.684095,1687.580022 290.228435,1687.440184 292.953442,1687.187518 302.439682,1686.296738 298.341578,1701.956005 293.201163,1725.874172 286.373868,1724.808987"/>
    <poly id="138758675" type="landuse.forest" color="140,196,107" fill="1" layer="-3.00" shape="271.352898,2251.224217 264.727605,2240.227767 257.407967,2221.531655 252.430171,2202.531668 249.972111,2182.852654 250.328237,2165.247689 253.336018,2125.338606 262.935246,2012.652582 255.122518,2011.926184 252.659719,2011.693947 250.504793,2011.489350 229.673253,2009.544993 218.107077,2146.182578 217.338621,2172.869617 222.120685,2201.889947 227.834378,2225.831244 236.094143,2248.760216 244.088298,2268.068864 251.939012,2281.868038 253.627849,2284.423024 256.615286,2287.557004 265.329564,2272.379029 272.544643,2260.645883 273.186010,2254.148867 271.352898,2251.224217"/>
    <poly id="138758679" type="landuse.forest" color="140,196,107" fill="1" layer="-3.00" shape="308.147332,1663.645661 302.439682,1686.296738 267.020685,1689.626054 275.096550,1656.169332 330.850257,1430.514274 334.084303,1418.032827 366.559641,1426.756567 308.147332,1663.645661"/>
    <poly id="138758688" type="landuse.forest" color="140,196,107" fill="1" layer="-3.00" shape="367.651203,1422.737248 334.762434,1414.139762 376.866201,1262.940649 394.802591,1271.098271 406.024837,1273.653531 393.122683,1320.019695 367.651203,1422.737248"/>
    <poly id="139672972" type="natural.water" color="181,209,209" fill="1" layer="-4.00" shape="954.507504,1435.959370 955.309264,1436.351772 956.205189,1436.456580 957.079008,1436.260616 957.841067,1435.795676 958.401713,1435.093552 958.959759,1435.704160 959.679305,1436.095112 960.492429,1436.231836 961.303606,1436.090394 962.030233,1435.691580 962.582263,1435.089432 962.903906,1434.338590 962.959533,1433.516304 962.747378,1432.722670 962.293472,1432.036022 961.630501,1431.545940 960.846743,1431.298482 960.024217,1431.306221 959.251595,1431.592971 958.618725,1432.115817 958.188446,1432.809116 957.942215,1432.393138 957.598890,1432.042199 957.171587,1431.789905 957.770593,1431.244211 958.160158,1430.527944 958.304457,1429.729472 958.188413,1428.926408 957.824159,1428.207967 957.251821,1427.630483 956.524834,1427.272775 955.718168,1427.158417 954.920495,1427.311223 954.207766,1427.699158 953.960962,1426.927162 953.485912,1426.273518 952.822743,1425.794559 952.052883,1425.536223 951.237207,1425.544084 950.465172,1425.797470 949.805683,1426.275347 949.328036,1426.934435 949.081364,1427.708850 948.347525,1427.351023 947.547906,1427.225665 946.737708,1427.311500 945.991902,1427.632101 945.807541,1426.816707 945.409030,1426.097662 944.809285,1425.519696 944.069183,1425.128383 944.540960,1424.413565 944.754357,1423.582936 944.680398,1422.724989 944.324170,1421.939938 943.732061,1421.317606 942.971601,1420.914809 942.117172,1420.788485 941.271344,1420.951570 940.523576,1421.383389 940.228811,1420.610549 939.705605,1419.967182 939.007393,1419.532108 938.209146,1419.328899 938.571893,1418.578781 938.689176,1417.757583 938.545921,1416.942914 938.147603,1416.212748 937.547661,1415.645904 936.793070,1415.298838 935.972503,1415.195363 935.154275,1415.347810 935.155285,1414.513435 934.874418,1413.729715 934.351602,1413.064105 933.646734,1412.617789 932.827736,1412.425340 931.990132,1412.510695 931.230033,1412.864422 930.623588,1413.443363 930.247140,1414.193240 929.637991,1413.759738 928.936835,1413.491492 928.191238,1413.411591 928.464919,1412.659901 928.492940,1411.848254 928.259833,1411.076501 927.798677,1410.411980 927.149206,1409.933266 926.379145,1409.686055 925.570514,1409.682920 924.805330,1409.936431 924.159348,1410.425674 923.695404,1411.085006 923.177869,1410.508493 922.506275,1410.118391 921.755591,1409.938274 922.138498,1409.210761 922.269285,1408.400926 922.132681,1407.597500 921.734361,1406.867336 921.127368,1406.311495 920.372382,1405.986675 919.551225,1405.916568 918.752765,1406.113867 918.059610,1406.557778 917.547905,1407.205144 917.273833,1407.979077 917.266171,1408.802209 917.526488,1409.585566 918.022098,1410.239569 918.706218,1410.696642 919.504075,1410.922091 919.148378,1411.661209 919.051455,1412.493892 919.242868,1413.298285 919.682883,1413.995808 920.331570,1414.519008 921.114744,1414.799825 921.950975,1414.792321 922.736908,1414.528051 923.390133,1414.016684 923.834307,1413.312502 924.445992,1413.990804 925.254020,1414.416687 926.156213,1414.554976 925.901713,1415.384880 925.920473,1416.264104 926.207409,1417.092432 926.736487,1417.791527 927.454077,1418.293693 926.928081,1418.974181 926.605462,1419.780633 926.521651,1420.646923 926.671172,1421.495078 925.854319,1421.569674 925.081893,1421.845308 924.408900,1422.311824 924.059127,1421.549140 923.487177,1420.949416 922.753924,1420.558227 921.933946,1420.421389 921.109261,1420.551474 920.376177,1420.927929 919.796746,1421.529599 919.434198,1422.268596 919.330424,1423.101159 919.494236,1423.916189 918.637650,1423.912209 917.830969,1424.187240 917.163847,1424.709487 916.705580,1425.435672 916.512938,1426.255542 916.600800,1427.102609 916.970930,1427.876777 917.570285,1428.476983 918.337989,1428.857654 917.755814,1429.615029 917.458640,1430.533183 917.489535,1431.501623 916.592628,1431.452431 915.738187,1431.715495 915.016062,1432.247897 914.523148,1432.995721 914.316020,1433.859837 914.409948,1434.751512 914.800043,1435.559407 913.987887,1435.756466 913.287688,1436.211379 912.762088,1436.869624 912.480971,1437.654559 912.466263,1438.488692 912.712485,1439.294051 913.207699,1439.970297 913.891424,1440.449613 913.334707,1440.929306 912.940063,1441.545361 912.749383,1442.254013 912.777742,1442.977653 913.019074,1443.671673 913.461048,1444.257979 914.056492,1444.691237 913.388589,1445.257972 912.943438,1446.017764 912.763715,1446.882363 912.871738,1447.752036 913.255177,1448.548689 912.456529,1448.757110 911.763575,1449.189901 911.224863,1449.814540 910.889331,1450.576265 910.799653,1451.386825 910.007672,1451.217107 909.205507,1451.236339 908.420561,1451.445003 908.434877,1450.633113 908.181216,1449.860999 907.685413,1449.218119 907.007952,1448.772290 906.223411,1448.569328 905.413609,1448.632926 904.674660,1448.953654 904.075662,1449.499355 903.686106,1450.215626 903.555519,1451.014340 903.692320,1451.806644 904.084180,1452.514443 904.684514,1453.059039 905.425791,1453.383615 906.233435,1453.442356 907.018380,1453.233692 907.098803,1454.114003 907.440744,1454.932175 908.025218,1455.598869 908.784891,1456.046148 908.238152,1456.737397 907.956056,1457.577941 907.961117,1458.456924 908.254904,1459.285371 908.811581,1459.973826 909.564206,1460.432106 909.004549,1461.078626 908.688983,1461.874079 908.660181,1462.730214 908.926955,1463.535935 909.449572,1464.212664 910.167744,1464.681462 911.000437,1464.874148 911.851930,1464.777910 912.619263,1464.402058 913.219437,1463.789628 913.569063,1463.005901 913.645628,1462.161734 914.388080,1462.419581 915.182608,1462.444717 915.946999,1462.235691 916.605696,1461.802297 917.103105,1461.188056 917.397139,1460.447850 917.445319,1459.658808 918.202062,1459.883532 918.996002,1459.942034 918.735438,1460.727331 918.754984,1461.562068 919.042898,1462.334786 919.572953,1462.978272 920.285059,1463.402463 921.097394,1463.583667 921.921680,1463.475826 922.661413,1463.110613 923.247494,1462.520187 923.603189,1461.781069 923.699916,1460.959507 923.515553,1460.144114 923.075542,1459.446590 922.433713,1458.923510 921.650546,1458.642693 920.821370,1458.639196 920.993066,1457.841207 920.911273,1457.038748 920.581860,1456.287548 920.044168,1455.688428 919.345568,1455.275600 918.546933,1455.094638 917.736937,1455.169356 916.991136,1455.489962 916.848467,1454.641928 916.457589,1453.878519 915.837684,1453.277951 915.069984,1452.897280 915.555849,1452.160457 915.769827,1451.296463 915.682555,1450.416030 915.313014,1449.608497 916.181154,1449.345675 916.903278,1448.813272 917.396386,1448.054327 917.610562,1447.179210 917.502932,1446.287294 917.106183,1445.468155 916.452414,1444.844739 917.035751,1444.410016 917.471109,1443.816931 917.716206,1443.131488 917.763210,1442.409177 917.144859,1442.109017 916.653162,1441.621961 916.334900,1441.015586 916.230198,1440.346226 916.338077,1439.669489 916.657163,1439.063228 917.152221,1438.582448 916.800867,1438.298121 916.554044,1437.915511 916.445420,1437.468586 916.487717,1437.013197 916.666447,1436.593590 916.967124,1436.254010 917.361560,1436.038461 917.808647,1435.946218 918.260035,1435.998679 918.452036,1436.769706 918.871888,1437.444623 919.479858,1437.944855 920.214677,1438.247069 921.001966,1438.294329 921.772820,1438.107668 922.438175,1437.685518 922.949289,1437.071518 923.236278,1436.342314 923.934097,1436.799630 924.738997,1437.014079 925.575812,1436.973210 926.349020,1436.653090 926.982278,1436.107996 927.412945,1435.392451 927.591690,1434.583461 928.340016,1434.897040 929.154513,1434.955906 929.939267,1434.758367 930.625372,1434.325458 931.136880,1433.689216 931.424459,1432.926647 931.452481,1432.114999 931.219571,1431.332125 930.751567,1430.667482 930.095247,1430.188647 929.318339,1429.941315 929.777196,1429.181766 929.943220,1428.316926 929.814450,1427.458012 929.396364,1426.682998 928.742005,1426.092945 927.925559,1425.755914 928.361116,1425.151708 928.599757,1424.443902 928.626797,1423.687863 928.427162,1422.961202 929.354221,1422.855174 930.190661,1422.447167 930.833126,1421.768734 931.211535,1420.907639 931.275774,1419.985378 931.010570,1419.090682 930.461919,1418.335615 929.689913,1417.810238 930.195930,1417.485406 930.560820,1417.002331 930.749149,1416.427140 931.385702,1416.861126 932.114458,1417.118734 932.887851,1417.176875 933.651073,1417.034583 933.690974,1417.880805 933.978497,1418.675767 934.494460,1419.341256 935.184841,1419.831818 935.988958,1420.090756 935.660075,1420.863722 935.570000,1421.696526 935.726959,1422.511436 936.118228,1423.252603 936.710730,1423.852690 937.443786,1424.255003 936.975918,1425.136770 936.807735,1426.123949 936.947852,1427.116566 936.132373,1427.113308 935.353488,1427.366576 934.707311,1427.866940 934.256678,1428.548756 934.050919,1429.335019 934.111962,1430.148238 934.441375,1430.899438 934.992573,1431.509923 935.712318,1431.889750 936.518591,1432.026349 937.329572,1431.896025 938.049150,1431.508208 938.601178,1430.906057 938.929668,1430.155335 938.991947,1429.344292 938.793490,1428.550900 939.561011,1428.553312 940.298397,1428.321564 940.936350,1427.898932 941.223871,1428.693895 941.753731,1429.348505 942.465055,1429.817187 941.825532,1430.328792 941.381356,1431.032972 941.189103,1431.830598 941.263650,1432.655180 941.599913,1433.406502 942.164813,1434.017229 942.898062,1434.408421 943.711186,1434.545142 944.529019,1434.414940 945.262495,1434.016244 945.828225,1433.414336 946.170419,1432.663856 946.246597,1431.841933 946.968695,1432.088300 947.728776,1432.123959 948.472424,1431.925697 949.123491,1431.536674 949.430779,1432.376487 949.973359,1433.086949 950.711301,1433.600602 950.091546,1434.157056 949.688084,1434.884204 949.550246,1435.705040 949.693303,1436.530831 950.098664,1437.249997 950.726203,1437.806204 951.495080,1438.120149 952.330523,1438.157137 953.129567,1437.926478 953.802954,1437.437722 954.280993,1436.756391 954.507504,1435.959370"/>
    <poly id="189347614" type="landuse.grass" color="194,194,130" fill="1" layer="-3.00" shape="1251.869860,1647.342948 1250.400828,1649.419617 1249.801454,1653.469726 1246.535384,1659.119167 1236.288012,1672.021086 1235.342567,1674.329531 1235.456080,1676.434214 1236.917975,1679.018898 1238.403886,1680.246726 1240.344978,1680.536965 1241.241130,1677.916141 1240.249972,1677.386835 1240.793428,1674.559514 1242.584829,1672.466299 1247.667770,1662.510166 1254.556433,1652.363499 1255.560872,1649.433087 1254.356945,1646.986467 1252.716135,1646.378907 1251.869860,1647.342948"/>
    <poly id="189481514" type="landuse.grass" color="194,194,130" fill="1" layer="-3.00" shape="1284.706335,1746.572035 1285.974302,1746.561115 1286.925015,1746.277570 1287.945065,1745.561368 1288.730661,1744.540632 1290.015261,1742.816717 1290.559704,1741.869587 1291.023515,1740.832027 1291.430791,1739.504209 1291.658177,1738.273332 1291.891275,1736.719924 1291.944876,1735.241213 1291.879848,1733.882779 1291.611619,1732.776628 1291.051568,1731.509554 1290.395212,1730.263026 1289.309188,1729.287019 1287.836723,1728.849306 1286.242632,1729.088081 1284.978273,1730.055838 1283.665634,1732.202017 1282.464338,1734.639426 1281.821931,1736.474843 1281.450640,1738.092556 1281.355656,1740.360427 1281.609663,1742.656729 1282.289482,1744.126178 1283.111830,1745.286643 1283.851815,1746.067391 1284.706335,1746.572035"/>
    <poly id="189637064" type="landuse.forest" color="140,196,107" fill="1" layer="-3.00" shape="278.240856,2260.523118 283.810609,2269.187060 287.072784,2274.239405 293.146284,2283.090183 312.607072,2253.303978 365.216069,2176.360456 404.231187,2114.687618 432.505393,2068.490957 445.623417,2048.028168 439.292552,2033.142827 438.016078,2030.127754 433.744841,2020.095768 422.353284,2031.199186 407.069711,2052.458451 388.569129,2081.337757 341.247721,2158.729713 292.167068,2238.060440 278.240856,2260.523118"/>
    <poly id="189637132" type="landuse.forest" color="140,196,107" fill="1" layer="-3.00" shape="604.052354,1925.862592 602.425207,1922.919189 599.496426,1918.005999 596.488108,1910.599363 591.411640,1899.996826 582.202282,1906.988532 433.744841,2020.095768 438.016078,2030.127754 439.292552,2033.142827 445.623417,2048.028168 594.308702,1933.234268 599.601620,1929.177570 601.934438,1927.449655 604.052354,1925.862592"/>
    <poly id="189637487" type="landuse.forest" color="140,196,107" fill="1" layer="-3.00" shape="738.273797,1785.275129 764.757401,1804.086818 768.046144,1795.166659 783.028448,1754.178106 790.993100,1731.122256 792.964406,1725.416353 794.988166,1720.234260 796.647271,1715.524131 798.734870,1708.663254 803.082317,1696.057059 793.029778,1691.352049 790.970452,1690.381265 789.277540,1689.617187 780.059199,1685.405279 758.522090,1745.269212 749.912081,1769.181518 743.070421,1778.673290 738.273797,1785.275129"/>
    <poly id="189637539" type="landuse.forest" color="140,196,107" fill="1" layer="-3.00" shape="780.059199,1685.405279 789.277540,1689.617187 790.970452,1690.381265 793.029778,1691.352049 803.082317,1696.057059 808.500910,1679.442401 799.000302,1676.082129 796.378227,1675.157058 794.587638,1674.491386 785.045707,1671.530921 780.059199,1685.405279"/>
    <poly id="189637715" type="landuse.forest" color="140,196,107" fill="1" layer="-3.00" shape="784.586088,1674.671268 794.113724,1677.664855 795.904312,1678.330527 798.526385,1679.255599 808.026987,1682.615870 867.588249,1516.820194 885.822713,1466.377169 888.168120,1459.676623 877.851486,1455.545312 875.619426,1454.649326 874.367257,1454.148871 861.613003,1449.117987 840.795184,1506.168465 816.137813,1573.464476 784.586088,1674.671268"/>
    <poly id="189639472" type="landuse.forest" color="140,196,107" fill="1" layer="-3.00" shape="938.711620,1987.948739 944.218115,1983.840542 945.599779,1982.819146 946.967744,1981.797508 952.141118,1977.928198 945.952428,1966.326630 913.667779,1893.031435 878.540437,1815.725787 850.468709,1757.179528 845.390055,1746.721313 841.670095,1748.602680 838.814507,1750.043144 837.631872,1750.656445 831.455829,1753.862947 836.866913,1771.124522 930.706486,1974.045595 938.711620,1987.948739"/>
    <poly id="189639473" type="landuse.forest" color="140,196,107" fill="1" layer="-3.00" shape="838.814507,1750.043144 837.631872,1750.656445 831.442127,1753.862705 821.606315,1732.195472 819.139176,1726.756273 834.352002,1719.392376 845.390055,1746.721313 841.670095,1748.602680 838.814507,1750.043144"/>
    <poly id="189639690" type="landuse.forest" color="140,196,107" fill="1" layer="-3.00" shape="881.798374,2047.221584 875.152767,2036.657822 925.055117,1998.410320 938.711620,1987.948739 946.172174,1998.148707 881.798374,2047.221584"/>
    <poly id="189639691" type="amenity.parking_space" color="237,199,199" fill="1" layer="-1.00" shape="716.538904,2158.221986 875.152767,2036.657822 881.798374,2047.221584 832.136803,2085.073233 778.940880,2125.611051 719.946332,2170.575334 714.725974,2159.614113 716.538904,2158.221986"/>
    <poly id="189639691#1" type="landuse.forest" color="140,196,107" fill="1" layer="-3.00" shape="716.538904,2158.221986 875.152767,2036.657822 881.798374,2047.221584 832.136803,2085.073233 778.940880,2125.611051 719.946332,2170.575334 714.725974,2159.614113 716.538904,2158.221986"/>
    <poly id="189667284" type="building.yes" color="255,230,230" fill="1" layer="-1.00" shape="1013.903435,1991.467482 1010.098824,1983.401252 1007.532412,1977.782191 974.748936,1992.600837 968.449452,1978.738859 981.601483,1972.796464 976.022577,1960.426852 962.768550,1966.322961 956.558248,1952.451449 966.483324,1948.031859 960.863444,1935.650419 951.075161,1940.083558 944.748922,1926.176641 957.894405,1920.222941 952.355105,1907.931936 939.101935,1914.161883 932.660166,1899.807936 965.903483,1884.974865 961.701039,1875.755758 999.818813,1858.094107 1004.959193,1855.715049 1010.113815,1875.041603 1011.514498,1881.096217 1009.725886,1881.876781 1006.776967,1883.170873 1016.059254,1915.942858 1026.665720,1948.226487 1038.648790,1983.260144 1037.842388,1983.524033 1013.903435,1991.467482"/>
    <poly id="189668224" type="natural.scrub" color="140,196,107" fill="1" layer="-4.00" shape="1020.209546,2003.393846 1027.124347,2002.192048 1034.451472,2002.087815 1041.372415,2002.866440 1048.845456,2004.199964 1057.090197,2006.070018 1063.785017,2007.623447 1068.848082,2009.225932 1072.149602,2011.242309 1076.127056,2014.561160 1083.596307,2021.924557 1084.604114,2024.223044 1085.506638,2026.274914 1085.319012,2027.973762 1083.780362,2028.958971 1081.485121,2028.940663 1080.044510,2027.480049 1079.043131,2025.593312 1076.608382,2022.223839 1072.217078,2017.507019 1068.994703,2014.501893 1065.975198,2012.813133 1046.976379,2023.892020 1046.182188,2023.076974 1037.899264,2028.026042 1029.546024,2021.436996 1030.030525,2016.895325 1029.562808,2012.726221 1027.903575,2007.735058 1022.284577,2010.450520 1016.076744,2004.989658 1020.209546,2003.393846"/>
    <poly id="189668225" type="natural.scrub" color="140,196,107" fill="1" layer="-4.00" shape="1080.248386,2060.926166 1086.821132,2049.994935 1089.503857,2047.861794 1092.836093,2046.975037 1095.722414,2046.892544 1098.102347,2047.546495 1100.204896,2048.774058 1101.406492,2050.575337 1102.171577,2053.036416 1104.140465,2064.151971 1104.288268,2066.257257 1104.341347,2068.294117 1103.843321,2069.720472 1098.524734,2075.600730 1080.248386,2060.926166"/>
    <poly id="189668836" type="landuse.grass" color="194,194,130" fill="1" layer="-3.00" shape="1022.295621,1760.677776 1020.900948,1758.550479 1019.477148,1755.744029 1018.045121,1753.015310 1016.966056,1749.313802 1016.151984,1746.128734 1016.242157,1743.738398 1016.269451,1742.192471 1024.716763,1741.929988 1025.058481,1745.863233 1025.756524,1748.245236 1027.324511,1752.200135 1029.076920,1755.412900 1022.295621,1760.677776"/>
    <poly id="189668837" type="landuse.grass" color="194,194,130" fill="1" layer="-3.00" shape="1087.108645,1754.902701 1103.908429,1752.763153 1090.931689,1686.694602 1068.932004,1691.067512 1069.329966,1696.470288 1073.882242,1698.686758 1077.128014,1700.379514 1081.179733,1703.388166 1076.651021,1708.759524 1077.933010,1709.894699 1080.162061,1712.504014 1082.992149,1716.002845 1084.713848,1718.625449 1088.127565,1725.550047 1089.134932,1729.428309 1089.739875,1733.199333 1090.163779,1736.744653 1090.076407,1740.525694 1089.707764,1744.324015 1089.018067,1748.839804 1088.089860,1752.116476 1087.108645,1754.902701"/>
    <poly id="189668838" type="landuse.grass" color="194,194,130" fill="1" layer="-3.00" shape="1053.142964,1706.197074 1049.400768,1705.062953 1046.051395,1704.191654 1042.202851,1704.034683 1037.345999,1705.094810 1033.028890,1707.799884 1029.462836,1710.273468 1026.045711,1713.239196 1021.357538,1718.719039 1019.317744,1722.854990 1017.676253,1727.331732 1016.451480,1731.882583 1016.399444,1734.829854 1016.187311,1737.529543 1026.513835,1737.956631 1026.316229,1739.833308 1032.294131,1740.094622 1032.167144,1742.628935 1042.660823,1742.903256 1044.355792,1744.323847 1045.877283,1746.642519 1047.482970,1748.462044 1049.267215,1749.483704 1054.211021,1750.093913 1054.462607,1727.703234 1054.291143,1727.711331 1040.833185,1740.846183 1038.430700,1738.356200 1037.036010,1739.722226 1022.327647,1724.710424 1022.787846,1724.262415 1022.798298,1722.894194 1022.354006,1722.441340 1037.353667,1707.765004 1038.720404,1709.146421 1041.216178,1706.742943 1051.569330,1717.305651 1053.142964,1706.197074"/>
    <poly id="189668839" type="landuse.grass" color="194,194,130" fill="1" layer="-3.00" shape="1031.766460,1756.005531 1030.722675,1754.963576 1029.047935,1752.397446 1028.021257,1749.998514 1027.232366,1748.104418 1026.776211,1746.383075 1026.557081,1744.821671 1030.665376,1744.237827 1031.524888,1746.789561 1032.485681,1747.874551 1033.540049,1748.705313 1035.347473,1748.414599 1036.354201,1747.286477 1036.532955,1746.477491 1038.017440,1745.847318 1039.983585,1745.882041 1041.352251,1747.541623 1043.125105,1749.208345 1045.391207,1750.883779 1047.915521,1751.907385 1051.287206,1752.289569 1051.122465,1760.452591 1049.222082,1760.574779 1046.346375,1760.434985 1043.511994,1759.895415 1040.773545,1758.968156 1038.199141,1757.676664 1035.775475,1755.998450 1033.698465,1754.092730 1031.766460,1756.005531"/>
    <poly id="189668840" type="landuse.grass" color="194,194,130" fill="1" layer="-3.00" shape="1034.701131,1778.029716 1032.180334,1783.792579 1039.682415,1786.216866 1046.717173,1787.164378 1050.975511,1787.395345 1055.735541,1787.156791 1060.507164,1786.262057 1061.081129,1791.011552 1057.301698,1791.601180 1052.051177,1791.675315 1047.129683,1791.744141 1041.717694,1791.648556 1036.325936,1790.407434 1032.090775,1788.864110 1027.535423,1786.825625 1023.112805,1784.255476 1019.262517,1781.484057 1015.103203,1777.972919 1012.003574,1774.602870 1009.288579,1770.794605 1010.872933,1769.164915 1007.907406,1765.185348 1005.773966,1760.653086 1003.800619,1756.368406 1002.249892,1751.434798 1001.270714,1746.344402 1000.703949,1741.183409 1000.867044,1736.602687 1001.454140,1731.295185 1002.612376,1726.242520 1003.912278,1722.093500 1005.797656,1717.387430 1007.762083,1713.250143 1009.263852,1711.641244 1012.226726,1711.115039 1015.893634,1707.586325 1019.856611,1705.531373 1025.826729,1702.354840 1029.946035,1701.537558 1035.877912,1699.751017 1042.452318,1699.221857 1046.634220,1699.128836 1050.217479,1700.338023 1053.557497,1703.678965 1053.357573,1704.910336 1050.489937,1703.535781 1046.826043,1702.236167 1038.775588,1702.917258 1032.582946,1705.500208 1027.594792,1709.339337 1022.830516,1714.083569 1018.549070,1719.815352 1016.246747,1724.847814 1014.499663,1731.035980 1013.915499,1736.176654 1013.720778,1742.547982 1014.766248,1748.540696 1016.318338,1753.396456 1018.542619,1757.440816 1020.365873,1760.910709 1021.921011,1763.652728 1022.954607,1764.883630 1026.657486,1768.242087 1029.299387,1769.979775 1026.909044,1774.176285 1031.347924,1776.602096 1034.701131,1778.029716"/>
    <poly id="190397932" type="landuse.grass" color="194,194,130" fill="1" layer="-3.00" shape="1062.881346,1513.357210 1053.045544,1514.996897 1050.549452,1517.800874 1047.437206,1516.689010 1050.208165,1509.962675 1020.229722,1498.864331 1028.030952,1476.996342 1032.874618,1480.964576 1038.261623,1485.598799 1044.101722,1490.964171 1048.557580,1495.159202 1052.670878,1499.348188 1057.103541,1504.855597 1060.140626,1509.058956 1062.881346,1513.357210"/>
    <poly id="190398955" type="landuse.grass" color="194,194,130" fill="1" layer="-3.00" shape="1037.789590,1655.528551 1038.141053,1634.074162 1010.772820,1635.871602 1008.309837,1636.028375 1004.688895,1646.655812 1009.213452,1663.256671 1037.789590,1655.528551"/>
    <poly id="190401314" type="building.yes" color="255,230,230" fill="1" layer="-1.00" shape="935.354092,1530.297260 937.919572,1523.166734 938.743441,1523.470523 939.976407,1523.892779 942.880373,1515.833707 949.084353,1518.056942 953.538805,1505.630759 960.478778,1508.089497 959.980550,1509.526987 959.957412,1510.449974 960.319109,1511.312998 961.007118,1511.937025 961.893039,1512.219661 962.820083,1512.113640 963.609928,1511.626940 964.137489,1510.857482 964.584622,1509.597094 990.817466,1518.971333 991.711351,1516.472805 996.844457,1502.100594 998.049823,1502.533503 998.972747,1502.661046 999.868484,1502.387600 1000.571430,1501.776995 1000.956501,1500.927148 1000.952438,1499.992556 1000.562951,1499.151288 999.861046,1498.538136 999.466435,1498.375417 998.322334,1497.965840 1007.714708,1471.753688 1001.245465,1469.414446 990.818909,1465.692590 991.244322,1464.498573 991.383933,1463.577642 991.118742,1462.682943 990.514316,1461.982510 989.671456,1461.589377 988.739318,1461.595176 987.959847,1461.881801 987.414079,1462.517433 987.094986,1463.123689 986.698745,1464.218095 979.772424,1461.759563 983.089373,1452.439522 966.179778,1446.378268 966.618888,1445.184490 966.722064,1444.774677 966.670037,1443.839239 966.239040,1443.019492 965.508933,1442.450348 964.601269,1442.234080 963.686737,1442.407073 962.930157,1442.949986 962.463464,1443.765020 962.052544,1444.914794 935.840003,1435.529954 929.812562,1452.434129 928.613833,1452.012479 927.697945,1451.873949 926.802400,1452.136285 926.099457,1452.746901 925.707740,1453.585511 925.704967,1454.519982 926.087422,1455.372244 926.789539,1455.974264 927.183959,1456.148099 928.334730,1456.568903 918.963307,1482.781562 935.852276,1488.842295 935.419832,1490.047318 935.285136,1490.690206 935.362429,1491.359083 935.793230,1492.189949 936.530184,1492.759209 937.437839,1492.975473 938.352361,1492.802475 939.115783,1492.259679 939.582468,1491.444643 940.072664,1490.073761 942.020288,1490.775629 935.474110,1509.116928 934.334959,1512.312029 931.236192,1511.211602 928.547384,1518.729339 926.320781,1524.909076 925.636004,1526.821665 935.354092,1530.297260"/>