<?xml version="1.0" encoding="UTF-8"?>

<!-- generated on 11/14/18 15:51:02 by Eclipse SUMO duarouter Version v1_0_1+0176-65b48fbf1c
<configuration xmlns:xsi="http://www.w3.org/2001/XMLSchema-instance" xsi:noNamespaceSchemaLocation="http://sumo.dlr.de/xsd/duarouterConfiguration.xsd">

    <input>
        <net-file value="osm.net.xml"/>
        <route-files value="osm.pedestrian.trips.xml"/>
    </input>

    <output>
        <output-file value="osm.pedestrian.rou.xml"/>
        <alternatives-output value="osm.pedestrian.rou.alt.xml"/>
    </output>

    <time>
        <begin value="0"/>
        <end value="3600.0"/>
    </time>

    <report>
        <no-warnings value="true"/>
        <ignore-errors value="true"/>
        <no-step-log value="true"/>
    </report>

</configuration>
-->

<routes xmlns:xsi="http://www.w3.org/2001/XMLSchema-instance" xsi:noNamespaceSchemaLocation="http://sumo.dlr.de/xsd/routes_file.xsd">
    <vType id="ped_pedestrian" vClass="pedestrian"/>
    <person id="ped1" type="ped_pedestrian" depart="5.63">
        <walk edges="139728384#3 139728384#2 139728384#0 7494295#4 7494167 7494137#1 7494137#0 7494155 7494154#0 130449318"/>
    </person>
    <person id="ped2" type="ped_pedestrian" depart="11.25">
        <walk edges="7494017#2 7494017#1 7494019 7494108 7494304#3 7494304#2 7494304#1 626686545 626686544 626686543 626686542 626683828#3 626683827 626683826"/>
    </person>
    <person id="ped3" type="ped_pedestrian" depart="16.88">
        <walk edges="7496854#1 7496854#0 457658286 457658288#1 98531328#2 98531328#1 98531328#0 7497052#3 7497052#2 7497052#1 7497052#0 7494109#2 7494109#1 7494109#0 7494018#1 7494018#0 -7494017#2 -7494017#1 7494104#0 7494104#1 7494104#2 4462768#1 258200055 258200056 612579122#1 612579122#0 612579121 454880909 7494062#2 7494062#4 328674806#0 -7494028#1 -612559962"/>
    </person>
    <person id="ped4" type="ped_pedestrian" depart="22.51">
        <walk edges="297473007 297473011#1 297473011#2 297473015#2 297473009#2 626667495 626667493 626667496#1 626667497 7494304#3 7494304#4 7494304#5 7494304#6 7494304#7 7494304#8 7494304#9 7494129#3 7494032#0 7494032#2 -189646381#3"/>
    </person>
    <person id="ped5" type="ped_pedestrian" depart="28.14">
        <walk edges="129463771 7496855#1 7496855#0 7496927#2 7496927#3 7496893#3 457658288#1 98531328#2 98531328#1 98531328#0 7497052#3 7497052#2 7497052#1 7497052#0 7494109#2 7494109#1 7494109#0 7494018#1 7494018#0 -7494017#2 -7494017#1 7494104#0 7494104#1 7494104#2 4462768#1 258200055 258200056 612579122#1 612579122#0 612579121 454880909 7494062#2 7494062#4 328674806#0 -7494028#1 309499148#5"/>
    </person>
    <person id="ped6" type="ped_pedestrian" depart="33.76">
        <walk edges="-189481513#3 -189481512 -189481513#0 270143185#1 -104049993#1 104054486#1 445828976#1 445828976#0 104045326#3"/>
    </person>
    <person id="ped7" type="ped_pedestrian" depart="39.39">
        <walk edges="626667496#1 626667493 626667495 297473009#2 297473015#2 297473011#2 297473011#1 297473011#0 297473013#3 -190401315#0 -190401315#1 -189669279#0 -189669279#1 328674797#0 328674802#1 328674802#0 328674801#2 328674805#0 328674794 328674806#2 328674806#0"/>
    </person>
    <person id="ped8" type="ped_pedestrian" depart="45.02">
        <walk edges="130153451#1 7494194 -7494136#1 7494167 7494295#3 7494005#0 7494005#1 7494005#2 7494108 -7494021#0 -7494021#1 -7494021#2 -7494021#3 -7494021#4 7494127#3 7494127#2 7494127#1 4462768#0"/>
    </person>
    <person id="ped9" type="ped_pedestrian" depart="50.65">
        <walk edges="7494143#0 139728403#0 139728403#1 7494304#1 7494304#2 626667497 626667496#1 626667493 626667495 297473009#2 297473015#2 297473011#2 297473011#1 297473011#0 297473013#3 -190401315#0 -121157898#2"/>
    </person>
    <person id="ped10" type="ped_pedestrian" depart="56.27">
        <walk edges="7494137#0 7494196 130153451#1 7494143#1 7494143#0 139728403#0 139728403#1 626686545 626686544 626686543 626686542"/>
    </person>
    <person id="ped11" type="ped_pedestrian" depart="61.90">
        <walk edges="189646381#3 189646381#2 7496234#6 139728341#3 139728341#2 139728341#1 529621703#4 529621703#6 7494295#0 7494295#1 7494295#2 7494295#3 -7494167"/>
    </person>
    <person id="ped12" type="ped_pedestrian" depart="67.53">
        <walk edges="7496991#1 7496991#0 457658286 457658288#1 98531328#2 98531328#1 98531328#0 7497052#3 7494133 189645337#1"/>
    </person>
    <person id="ped13" type="ped_pedestrian" depart="73.15">
        <walk edges="-7494008 98531331#1 98531331#2 98531331#3 7494005#0 7494005#1 7494005#2 7494108 7494019 -7494017#1"/>
    </person>
    <person id="ped14" type="ped_pedestrian" depart="78.78">
        <walk edges="7494285#0 47836820#1 47836820#0 328674815 328674817 104059841#2 328674807#0 328674791 328674798#1 328674792 328674803#0 308873075#1 308873075#3 4742125#0 4742125#1 4742125#2"/>
    </person>
    <person id="ped15" type="ped_pedestrian" depart="84.41">
        <walk edges="7494137#1 7494137#0 7494196 127115493 7494009"/>
    </person>
    <person id="ped16" type="ped_pedestrian" depart="90.04">
        <walk edges="328674802#0 328674802#1 328674797#0 -189669279#1 -189669279#0 190401315#2 7494021#3 7494021#2 7494021#1 7494021#0 7494108 7494005#2 7494005#1 7494005#0 98531331#3 98531331#2 98531331#1 98531331#0 7494007#3 7494007#2 7494007#1 7496967#0 7496896#0 7497054#0"/>
    </person>
    <person id="ped17" type="ped_pedestrian" depart="95.66">
        <walk edges="206556875#3 7493992#2 7494129#5 7494129#6 218541220#1 139728276#0 4462768#2 4462768#1 258200055 258200056 612579122#1 612579122#0 612579121 454880909 7494062#2 7494062#4 7494062#7 328674809#0"/>
    </person>
    <person id="ped18" type="ped_pedestrian" depart="101.29">
        <walk edges="7494185#0 328674815 47836820#0 47836820#1 7494304#1 7494304#2 7494304#3 7494005#2 7494005#1 7494005#0 7494295#2 7494295#1 7494295#0 529621703#6"/>
    </person>
    <person id="ped20" type="ped_pedestrian" depart="112.55">
        <walk edges="7493966#0 127115493 -7494196 -7494137#0 -7494137#1 -7494167 7494295#3 7494005#0 7494005#1 7494005#2 7494108 7494021#0 7494021#1 7494021#2 7494021#3 190401315#2 -190401315#1 -121157898#2 190398954 -190398954"/>
    </person>
    <person id="ped21" type="ped_pedestrian" depart="118.17">
        <walk edges="138758702#3 138758702#2 138758702#0 -7496908#0 -7496908#1 7493966#0 127115493 -7494196 -7494137#0 -7494137#1 -7494167 7494295#3 7494005#0 7494005#1 7494005#2 7494108 7494019 7494104#0 7494104#1 7494104#2 309450402#0 139728411#3 139728411#2 139728411#1 139728411#0"/>
    </person>
    <person id="ped22" type="ped_pedestrian" depart="123.80">
        <walk edges="-309499148#2 -309499148#3 -309499148#4 -7494028#1 328674806#0 7494062#4 7494062#2 454880909 612579121 612579122#0 612579122#1 258200056 258200055 4462768#1 309450402#0 139728278#1"/>
    </person>
    <person id="ped23" type="ped_pedestrian" depart="129.43">
        <walk edges="-7494021#0 7494108 7494304#3 7494304#2 7494304#1 139728403#1 139728403#0"/>
    </person>
    <person id="ped25" type="ped_pedestrian" depart="140.68">
        <walk edges="206556874#2 7494032#0 7494129#3 7494011 7494017#2 7494017#1 7494019 -7494021#0 -7494021#1 -7494021#2 -7494021#3 190401315#2 -190401315#1 -121157898#2 -121157898#1 -270143188#0 328674791 328674807#0 104059841#2"/>
    </person>
    <person id="ped26" type="ped_pedestrian" depart="146.31">
        <walk edges="139728361 7496234#1 139728341#7 139728341#8 139728341#9 7494121#1 7494121#0 98531328#0 98531328#1 98531328#2 457658288#1 7496893#3 7496927#3 7496890#1 7496965#2 7497042 7496941#0"/>
    </person>
    <person id="ped27" type="ped_pedestrian" depart="151.94">
        <walk edges="626667495 626667493 626667496#1 626667497 7494304#3 7494005#2 7494005#1 7494005#0 7494295#2 7494295#1 7494295#0 529621703#6 529621703#4 529621703#3 529621703#2 529621703#1 529621703#0"/>
    </person>
    <person id="ped28" type="ped_pedestrian" depart="157.56">
        <walk edges="-7496855#2 -7496855#1 -7496855#0 7496927#2 7496927#3 290226822 290226823 7496967#0 7494007#1 7494007#2 7494007#3 7494009"/>
    </person>
    <person id="ped29" type="ped_pedestrian" depart="163.19">
        <walk edges="-7496854#0 457658286 457658288#1 98531328#2 98531328#1 98531328#0 -7494121#0 -7494121#1 206556875#4 206556875#3"/>
    </person>
    <person id="ped30" type="ped_pedestrian" depart="168.82">
        <walk edges="98531328#0 7497052#3 7497052#2 7497052#1 7497052#0 7494109#2 7494109#1 7494109#0 7494018#1 7494018#0 -7494017#2 -7494017#1 7494104#0 7494104#1 7494104#2 4462768#1 258200055 258200056 612579122#1 612579132"/>
    </person>
    <person id="ped31" type="ped_pedestrian" depart="174.45">
        <walk edges="328674816 -328674817 -328674819#1 47836820#0 47836820#1 626686545 626686544 626686543 626686542 626683828#3"/>
    </person>
    <person id="ped32" type="ped_pedestrian" depart="180.07">
        <walk edges="7494231#4 7494231#3 309450402#0 7494104#2"/>
    </person>
    <person id="ped33" type="ped_pedestrian" depart="185.70">
        <walk edges="138758702#3 138758702#2 138758702#0 7496921#1 457658288#1 457658286 -7496854#0 -7496854#1 -7496854#2 -189646381#2 -189646381#3 -189646381#4"/>
    </person>
    <person id="ped34" type="ped_pedestrian" depart="191.33">
        <walk edges="150115772#0 7496884#0 7496884#1 7496896#2 138758702#3 138758702#2 138758702#0 -7496908#0 -7496908#1 7493966#0 7494009 7494121#0 7494121#1 139728341#9 139728341#8 139728341#7 7496234#1 139728361"/>
    </person>
    <person id="ped35" type="ped_pedestrian" depart="196.95">
        <walk edges="104059841#2 328674807#0 328674791 -270143188#0 -121157898#1 -121157898#2 -190401315#1 190401315#2 7494021#3 7494021#2 7494021#1 7494021#0 7494108 7494005#2 7494005#1 7494005#0 98531331#3 98531331#2 98531331#1 98531331#0 7494007#3 7494007#2 7494007#1 7496967#0 290226823 290226822 7496927#3 7496927#2 -7496855#0 7496965#1"/>
    </person>
    <person id="ped36" type="ped_pedestrian" depart="202.58">
        <walk edges="7496234#5 -7494121#1 -7494121#0 -7494009 7493966#0 -7496908#1 -7496908#0 138758702#0 138758702#2 138758702#3 7496896#2 7496884#1 7496884#0 150115772#0"/>
    </person>
    <person id="ped37" type="ped_pedestrian" depart="208.21">
        <walk edges="626668099 626668098 626668101 7494021#2 7494021#3 190401315#2 -189669279#0 -189669279#1 328674797#0 328674802#1 270313906 270136266"/>
    </person>
    <person id="ped38" type="ped_pedestrian" depart="213.84">
        <walk edges="7496896#2 138758702#3 138758702#2 138758702#0 -7496908#0 -7496908#1 7493966#0 127115493 -7494196 -7494137#0 -7494137#1 -7494167 7494295#3 7494005#0 7494005#1 7494005#2 7494304#3 626667497 626667496#1 626667493 626667495 297473009#2 297473015#2 297473011#2 297473011#1 297473011#0 297473013#3 -190397929#1 626671551 626671553 303623396#4"/>
    </person>
    <person id="ped39" type="ped_pedestrian" depart="219.46">
        <walk edges="139728356 139728341#2"/>
    </person>
    <person id="ped40" type="ped_pedestrian" depart="225.09">
        <walk edges="328674822#0 328674807#0 328674791 -270143188#0 -121157898#1 -121157898#2 -190401315#1 190401315#2 -7494021#4 7494127#3 7494127#2 7494127#1 4462768#0 4462768#1 309450402#0 139728411#3 139728351"/>
    </person>
    <person id="ped41" type="ped_pedestrian" depart="230.72">
        <walk edges="445828976#0 445828976#1 328674807#0 328674791 -270143188#0 -121157898#1 -121157898#2 -190401315#1 190401315#2 7494021#3 7494021#2 7494021#1 7494021#0 7494108 7494005#2 7494005#1 7494005#0 98531331#3 98531331#2 98531331#1 98531331#0 7494007#3 7494007#2 7494007#1 7496967#0 290226823 290226822 7496927#3 7496927#2 7496855#0 7496855#1"/>
    </person>
    <person id="ped42" type="ped_pedestrian" depart="236.35">
        <walk edges="270143190 270136266 270313906 328674802#1 328674797#0 328674797#1 328674791 328674807#0 104059841#2 328674817 328674815 47836820#0 47836820#1 139728403#1 139728403#0 7494143#0 7494143#1 130153451#1"/>
    </person>
    <person id="ped43" type="ped_pedestrian" depart="241.97">
        <walk edges="98531331#2 98531331#3 7494005#0 7494005#1 7494005#2 7494108 7494021#0 7494021#1 7494021#2 7494021#3 190401315#2 -189669279#0 -189669279#1 328674797#0 328674802#1 328674802#0 328674801#2 308873075#1 308873075#3 4742125#0 309551797#0"/>
    </person>
    <person id="ped44" type="ped_pedestrian" depart="247.60">
        <walk edges="-626680691 303623394#3 303623394#2 303623396#0 303623398#1 303623398#0 303623396#4 626671553 626671551 -190397929#1 -190401315#0"/>
    </person>
    <person id="ped45" type="ped_pedestrian" depart="253.23">
        <walk edges="-7494021#5 -7494127#0 4462768#0 258200055 258200056 612579122#1 612579122#0"/>
    </person>
    <person id="ped46" type="ped_pedestrian" depart="258.85">
        <walk edges="7494127#2 7494127#3 -7494021#4 190401315#2 -190401315#1 -190401315#0 297473013#3 297473011#0 297473007"/>
    </person>
    <person id="ped47" type="ped_pedestrian" depart="264.48">
        <walk edges="-278065858#0 7494104#1 7494104#2 4462768#2 139728276#0 218541220#1 218541220#0 218541215"/>
    </person>
    <person id="ped48" type="ped_pedestrian" depart="270.11">
        <walk edges="98531331#1 98531331#2 98531331#3 7494005#0 7494005#1 7494005#2 7494108 7494021#0 7494021#1 7494021#2 7494021#3 190401315#2 -189669279#0 -189669279#1 328674797#1"/>
    </person>
    <person id="ped49" type="ped_pedestrian" depart="275.74">
        <walk edges="7497053 7497054#1 7497054#0 7496896#0 7496967#0 7494007#1 7494007#2 7494007#3 98531331#0 98531331#1 98531331#2 98531331#3 7494005#0 7494005#1 7494005#2 7494304#3 7494304#2"/>
    </person>
    <person id="ped50" type="ped_pedestrian" depart="281.36">
        <walk edges="-150115772#0 7496884#0 7496884#1 7496896#2 138758702#3 138758702#2 138758702#0 -7496908#0 -7496908#1 7493966#0 127115493 -7494196 -7494137#0 -7494137#1 -7494167 7494295#3 7494005#0 7494005#1 7494005#2"/>
    </person>
    <person id="ped51" type="ped_pedestrian" depart="286.99">
        <walk edges="626683828#1 626683828#2 626686542 626686543 626686544 626686545 47836820#1 47836820#0 328674815 328674817 104059841#2 328674807#0 328674791 328674797#1 328674797#0 328674802#1"/>
    </person>
    <person id="ped52" type="ped_pedestrian" depart="292.62">
        <walk edges="139728361 7496234#0 7494011 139728276#1 4462768#2 4462768#1 258200055 258200056 612579122#1 612579132"/>
    </person>
    <person id="ped53" type="ped_pedestrian" depart="298.24">
        <walk edges="-7494042#0 7494042#1 7494042#2 -309499148#0 -309499148#1 -309499148#2 -309499148#3 4742125#2 4742125#1 4742125#0 308873075#3 308873075#1 328674801#2 328674802#0 328674802#1 328674797#0 -189669279#1 -189669279#0 -190401315#1 -190401315#0 297473013#3 297473011#0 297473007 297473013#1"/>
    </person>
    <person id="ped54" type="ped_pedestrian" depart="303.87">
        <walk edges="303623396#1 303623396#2 303623396#3 626671553 626671551 -190397929#1 297473013#3 297473011#0 297473011#1 297473011#2 297473015#2 297473009#2 626667495 626667493 626667496#1 626667497 7494304#3 7494005#2 7494005#1 7494005#0 7494295#2 7494295#1 7494295#0 529621703#6 529621703#4 529621703#3 529621703#2 529621703#1 7497026#0 7496986#0 7496986#1"/>
    </person>
    <person id="ped55" type="ped_pedestrian" depart="309.50">
        <walk edges="7496234#5 206556875#4 206556874#2 7493992#2 7494129#5 7494129#6 218541220#1 139728280#2 139728411#0 139728411#1 139728411#2 139728351"/>
    </person>
    <person id="ped56" type="ped_pedestrian" depart="315.13">
        <walk edges="309499148#2 309499148#3 4742125#2 4742125#1 4742125#0 308873075#3 308873075#1 328674801#2 328674802#0 328674802#1 328674797#0 -189669279#1 -189669279#0 190401315#2 7494021#3 7494021#2 7494021#1 7494021#0 7494108 7494005#2 7494005#1 7494005#0 98531331#3 98531331#2 98531331#1 98531331#0 7494007#3 7494007#2 7494007#1 7496967#0 290226823 290226822 7496927#3 7496890#1 7496965#2 7497042 7496941#1 -7496980"/>
    </person>
    <person id="ped57" type="ped_pedestrian" depart="320.75">
        <walk edges="7496896#1 7496896#0 7496967#0 7494007#1 7494007#2 7494007#3 7497052#3 7497052#2 7497052#1 7497052#0 7494109#2 7494109#1 7494109#0 7494304#5 7494304#6 7494304#7 7494304#8"/>
    </person>
    <person id="ped59" type="ped_pedestrian" depart="332.01">
        <walk edges="529621703#0 529621703#1 529621703#2 529621703#3 529621703#4 529621703#6 7494015 -7494165"/>
    </person>
    <person id="ped60" type="ped_pedestrian" depart="337.64">
        <walk edges="7494042#2 -309499148#0 -309499148#1 -309499148#2 -309499148#3 4742125#2 4742125#1 4742125#0 308873075#3 308873075#1 328674803#0"/>
    </person>
    <person id="ped61" type="ped_pedestrian" depart="343.26">
        <walk edges="7494108 7494021#0 7494021#1 7494021#2 7494021#3 190401315#2 -189669279#0 -189669279#1 328674797#1 328674798#1"/>
    </person>
    <person id="ped62" type="ped_pedestrian" depart="348.89">
        <walk edges="-104049993#1 270143185#1 -189481513#0 189481512"/>
    </person>
    <person id="ped63" type="ped_pedestrian" depart="354.52">
        <walk edges="-150115772#4 150115772#4 7497054#2 7497054#1 7497054#0 7496896#0 290226823 290226822 7496927#3"/>
    </person>
    <person id="ped64" type="ped_pedestrian" depart="360.14">
        <walk edges="7496234#6 7496234#5 7496234#1 7496234#0 7494011 7494017#2 7494017#1 7494019 -7494021#0 -7494021#1 -7494021#2 -7494021#3 190401315#2 -190401315#1 -190401315#0 -190397929#1 626671551 626671553 303623396#4 303623398#0 303623398#1 303623396#0 303623394#2 303623394#3 -626680691 7494185#2"/>
    </person>
    <person id="ped65" type="ped_pedestrian" depart="365.77">
        <walk edges="139728434#0 7496234#7 7496234#6 7496234#5 7496234#1 7496234#0 7494011 7494017#2 7494017#1 7494019 -7494021#0 -7494021#1 -7494021#2 -278065855#0"/>
    </person>
    <person id="ped66" type="ped_pedestrian" depart="371.40">
        <walk edges="7496234#6 139728341#3 139728341#2 139728341#1 529621703#4 -7494121#1 -7494121#0 7494007#3 7494007#2 7494007#1 7496967#0"/>
    </person>
    <person id="ped67" type="ped_pedestrian" depart="377.03">
        <walk edges="-328674819#1 -328674817 328674816 328674822#0 445828976#1 445828976#0 104045326#2 104045326#1 104045325 7494190 270049774#1 7494161#1 -7494148#2 -308974658#1 308974658#2"/>
    </person>
    <person id="ped68" type="ped_pedestrian" depart="382.65">
        <walk edges="-308970880 308970880 270049774#1 7494190 104045325 104045326#1 104045326#2 445828976#0 445828976#1 328674807#0 328674791 328674798#1 328674792 328674803#0 308873075#1 308873075#3 4742125#0 4742125#1 4742125#2 -309499148#3 -309499148#2 -309499148#1 -309499148#0 7494042#2 7494042#1"/>
    </person>
    <person id="ped69" type="ped_pedestrian" depart="388.28">
        <walk edges="7494054 -7494137#1 -7494165 7494015 -7494129#3"/>
    </person>
    <person id="ped70" type="ped_pedestrian" depart="393.91">
        <walk edges="308873101#4 328674805#0 328674794 328674806#2 328674806#0 328674808#1 328674808#0"/>
    </person>
    <person id="ped71" type="ped_pedestrian" depart="399.54">
        <walk edges="139728356 139728341#2 139728341#3 7496234#5 7496234#1 7496234#0"/>
    </person>
    <person id="ped72" type="ped_pedestrian" depart="405.16">
        <walk edges="297473009#0 297473009#1 297473009#2 297473015#2 297473011#2 297473011#1 297473011#0 297473013#3 -190401315#0 -121157898#2 -121157898#1 -121157898#0 121157898#0"/>
    </person>
    <person id="ped73" type="ped_pedestrian" depart="410.79">
        <walk edges="328674803#0 270143191 328674802#0 328674802#1 328674797#0 -189669279#1 -189669279#0 190401315#2 7494021#3 7494021#2 7494021#1 7494021#0 7494108 7494005#2 7494005#1 7494005#0 7494295#3 -7494167 -7494137#1 -7494137#0 -7494196 127115493 7494009"/>
    </person>
    <person id="ped74" type="ped_pedestrian" depart="416.42">
        <walk edges="104049993#1 104054486#2 328674797#1 -189669279#1 -189669279#0 190401315#2 -7494021#3 -7494021#2 -7494021#1 -7494021#0 7494019 7494017#1 7494017#2 7494011 7496234#0 7496234#1 7496234#5 7496234#6 7496234#7 139728434#0 139728434#1 139728434#2 139728434#3"/>
    </person>
    <person id="ped75" type="ped_pedestrian" depart="422.04">
        <walk edges="98531331#1 98531331#2 98531331#3 7494005#0 7494005#1 7494005#2 7494304#3 626667497 626667496#1"/>
    </person>
    <person id="ped77" type="ped_pedestrian" depart="433.30">
        <walk edges="-7494121#1 -7494121#0 -7494009 7493966#0 -7496908#1 -7496908#0 138758702#0"/>
    </person>
    <person id="ped78" type="ped_pedestrian" depart="438.93">
        <walk edges="189646381#2 7496234#6 7496234#5 7496234#1 7496234#0 7494011 7494017#2 7494017#1 7494019 -7494021#0 -7494021#1 -7494021#2 -7494021#3 190401315#2 -190401315#1 -121157898#2 -121157898#1 -270143188#0 328674791 328674807#0 445828976#3"/>
    </person>
    <person id="ped79" type="ped_pedestrian" depart="444.55">
        <walk edges="139728276#0 4462768#2 7494104#2 7494104#1 7494104#0 7494019 7494108 7494005#2 7494005#1 7494005#0 7494295#3 7494167 -7494136#1 7494194 130153451#1"/>
    </person>
    <person id="ped81" type="ped_pedestrian" depart="455.81">
        <walk edges="138758702#3 7496896#2 7496896#1 7496896#0 290226823 290226822 7496927#3 7496890#1 7496890#0"/>
    </person>
    <person id="ped82" type="ped_pedestrian" depart="461.44">
        <walk edges="7494304#2 7494304#1 47836820#1 47836820#0 -328674819#1 -328674817 328674816 328674822#0 445828976#1 445828976#0 104045326#2 104045326#1 104045325 7494190 270049774#1 7494161#1 -7494148#2 -308974658#1 -308974657"/>
    </person>
    <person id="ped83" type="ped_pedestrian" depart="467.06">
        <walk edges="139728280#1 139728413#0 139728413#2 139728413#3 139728278#1 309450402#0 4462768#1 4462768#0 7494127#1 7494127#2 7494127#3 -7494021#4 190401315#2 -190401315#1 -190401315#0 -190397929#1 626671551 626671553 303623396#4 303623398#0 303623398#1 303623396#0 303623394#2 303623394#3 626680690#2"/>
    </person>
    <person id="ped84" type="ped_pedestrian" depart="472.69">
        <walk edges="121157898#1 -121157898#2 -190401315#1 190401315#2 -7494021#3 -7494021#2 -7494021#1 -7494021#0 7494019 7494017#1 7494017#2 7494011 7494129#3 7494129#4 -7494129#5"/>
    </person>
    <person id="ped86" type="ped_pedestrian" depart="483.94">
        <walk edges="308873075#3 308873075#1 328674801#2 328674802#0 328674802#1 328674797#0 -189669279#1 -189669279#0 190401315#2 7494021#3 7494021#2 7494021#1 7494021#0 7494108 7494005#2 7494005#1 7494005#0 7494295#2 7497052#0 7497052#1 7497052#2 7497052#3 7494121#0"/>
    </person>
    <person id="ped87" type="ped_pedestrian" depart="489.57">
        <walk edges="7494137#1 -7494136#1 7494136#0 7494143#0 139728403#0 139728403#1 47836820#1 47836820#0 -328674819#1 -328674817 328674816 328674822#0 445828976#1 445828976#0 104045326#2 104045311"/>
    </person>
    <person id="ped88" type="ped_pedestrian" depart="495.20">
        <walk edges="-7494017#1 7494019 7494108 7494304#3 626667497 626667496#1 626667493 626667495 297473009#2 297473015#2 297473011#2 297473011#1"/>
    </person>
    <person id="ped89" type="ped_pedestrian" depart="500.83">
        <walk edges="297473009#0 297473009#1 297473009#2 297473015#2 297473011#2 297473011#1 297473011#0 297473013#3 -190397929#1 626671551 626671553 303623396#4 303623398#0 303623399#0"/>
    </person>
    <person id="ped90" type="ped_pedestrian" depart="506.45">
        <walk edges="7494009 127115493 -7494196 -7494137#0 -7494137#1 -7494167 7494295#3 7494005#0 7494005#1 7494005#2 7494304#3 626667497 626667496#0 626667492 626667494 297473009#0 297473015#0 626683825 626683824"/>
    </person>
    <person id="ped91" type="ped_pedestrian" depart="512.08">
        <walk edges="7497078#0 7496991#1 7496991#0 457658286 457658288#1 98531328#2 98531328#1 98531328#0 7497052#3 7497052#2 7497052#1 7497052#0 7494109#2 7494109#1 7494109#0 7494018#1 7494018#0 -7494017#2"/>
    </person>
    <person id="ped92" type="ped_pedestrian" depart="517.71">
        <walk edges="270313905 270143187 328674802#0 328674802#1 328674797#0 -189669279#1 -189669279#0 190401315#2 -7494021#3 -7494021#2 -7494021#1 -7494021#0 7494019 7494017#1 7494017#2 7494011 7494129#3 7494032#0 7494032#2 189646381#3"/>
    </person>
    <person id="ped93" type="ped_pedestrian" depart="523.34">
        <walk edges="7494304#3 7494005#2 7494005#1 7494005#0 7494295#2 7494295#1 7494295#0 529621703#6 529621703#4 139728341#1 139728341#2 139728341#3"/>
    </person>
    <person id="ped94" type="ped_pedestrian" depart="528.96">
        <walk edges="104045311 104045326#2 445828976#0 445828976#1 328674822#0 328674816 -328674817 -7494185#0 7494185#1 -626680691 303623394#3 303623394#2"/>
    </person>
    <person id="ped95" type="ped_pedestrian" depart="534.59">
        <walk edges="297473007 297473011#1 297473011#2 297473015#2 297473009#2 626667495 626667493 626667496#1 626667497 7494304#2 7494304#1 139728403#1"/>
    </person>
    <person id="ped96" type="ped_pedestrian" depart="540.22">
        <walk edges="139728341#4 7496234#6 7496234#7 139728434#0 139728434#1 139728434#2 139728434#3 139728434#4 529621703#1 7497026#0 -7496986#0 7497077 7497078#0 -7497075#2 -7497075#0 7496927#0"/>
    </person>
    <person id="ped97" type="ped_pedestrian" depart="545.84">
        <walk edges="297473015#2 297473009#2 626667495 626667493 626667496#1 626667497 7494304#3"/>
    </person>
    <person id="ped98" type="ped_pedestrian" depart="551.47">
        <walk edges="328674808#1 328674806#0 328674806#2 328674794 328674805#0 328674801#2 328674802#0 328674802#1 328674797#0 -189669279#1 -189669279#0 -190401315#2"/>
    </person>
    <person id="ped99" type="ped_pedestrian" depart="557.10">
        <walk edges="98531331#3 7494165 -7494136#1 7494194"/>
    </person>
    <person id="ped100" type="ped_pedestrian" depart="562.73">
        <walk edges="7497052#3 98531328#0 98531328#1 98531328#2 457658288#1 7496893#3 7496927#3 7496927#2"/>
    </person>
    <person id="ped101" type="ped_pedestrian" depart="568.35">
        <walk edges="7494295#0 529621703#6 529621703#4 529621703#3 -7496854#2"/>
    </person>
    <person id="ped102" type="ped_pedestrian" depart="573.98">
        <walk edges="308974658#2 -308974658#1 -7494148#2 7494161#1 270049774#1 7494190 104045325 104045326#1 104045326#2 445828976#0 445828976#1 328674807#0 328674791 -270143188#0 121157898#1"/>
    </person>
    <person id="ped103" type="ped_pedestrian" depart="579.61">
        <walk edges="270143191 328674802#0 328674802#1 328674797#0 -189669279#1 -189669279#0 190401315#2 -7494021#3 -278065855#0"/>
    </person>
    <person id="ped104" type="ped_pedestrian" depart="585.24">
        <walk edges="206556875#3 7494032#2 -189646381#2 7496234#7 139728434#0 139728434#1 139728434#2 139728434#3 139728434#4 529621703#1 7497026#0 7496986#0 -7497077 7497078#1"/>
    </person>
    <person id="ped105" type="ped_pedestrian" depart="590.86">
        <walk edges="139728358 139728434#2 139728434#3 139728434#4 529621703#2 529621703#3 529621703#4 -7494121#1 7494121#0"/>
    </person>
    <person id="ped106" type="ped_pedestrian" depart="596.49">
        <walk edges="303623396#2 303623396#3 626671553 626671551 -190397929#1 297473013#3 297473011#0 297473011#1 297473011#2 297473015#2 297473009#2 297473009#1 297473009#0"/>
    </person>
    <person id="ped107" type="ped_pedestrian" depart="602.12">
        <walk edges="7496991#1 7496991#0 457658286 457658288#1 7494007#1 7494007#2 7494007#3 98531331#0 98531331#1"/>
    </person>
    <person id="ped108" type="ped_pedestrian" depart="607.74">
        <walk edges="328674815 47836820#0 47836820#1 7494304#1 7494304#2 7494304#3 7494005#2 7494005#1 7494005#0"/>
    </person>
    <person id="ped109" type="ped_pedestrian" depart="613.37">
        <walk edges="-7494167 7494295#3 7494005#0 7494005#1 7494005#2 7494108 7494019 7494104#0 7494104#1 7494104#2 309450402#0 139728278#1 139728413#3 139728413#2"/>
    </person>
    <person id="ped111" type="ped_pedestrian" depart="624.63">
        <walk edges="328674805#0 328674801#2 328674802#0 328674802#1 328674797#0 -189669279#1 -189669279#0 190401315#2 7494021#4"/>
    </person>
    <person id="ped112" type="ped_pedestrian" depart="630.25">
        <walk edges="-270143190 270136266 270313906 328674802#1 328674797#0 328674797#1 328674791 328674807#0 445828976#1 445828976#0 104045326#2 104045326#1 104045325 7494190 270049774#1 7494161#1 7494148#3 445828970#0"/>
    </person>
    <person id="ped113" type="ped_pedestrian" depart="635.88">
        <walk edges="309499148#4 4742125#2 4742125#1 4742125#0 308873075#3 308873075#1 328674801#2 328674802#0 328674802#1 328674797#0 -189669279#1 -189669279#0 190401315#2 7494021#3 7494021#2 7494021#1 7494021#0 7494108 7494005#2 7494005#1 7494005#0 7494295#3"/>
    </person>
    <person id="ped114" type="ped_pedestrian" depart="641.51">
        <walk edges="-7494185#1 -626680691 303623394#3 303623394#2 303623396#0 303623398#1 303623398#0 303623396#4 626671553 626671551 -190397929#1 297473013#3 297473011#0 297473011#1 297473011#2 297473015#2 297473009#2 626667495 626667493 626667496#1 626667497 7494304#3 7494005#2 7494005#1 7494005#0 7494295#2 7494295#1 7494295#0 529621703#6 529621703#4 529621703#3 529621703#2 529621703#1 7497026#0 7497026#1"/>
    </person>
    <person id="ped115" type="ped_pedestrian" depart="647.14">
        <walk edges="-309499148#2 -309499148#3 4742125#2 4742125#1 4742125#0 308873075#3 308873075#1 328674801#2 328674802#0 328674802#1 328674797#0 -189669279#1 -189669279#0 190401315#2 7494021#3 7494021#2 7494021#1 7494021#0 7494108 7494005#2 7494005#1 7494005#0 7494295#2 7497052#0 7497052#1 7497052#2 7497052#3 98531328#0 98531328#1 98531328#2 457658288#1 457658286 7496991#0 7496991#1 -7497075#2 -7497075#0"/>
    </person>
    <person id="ped116" type="ped_pedestrian" depart="652.76">